# generated using pymatgen
data_LiF
_symmetry_space_group_name_H-M   'P 1'
_cell_length_a   12.35443241
_cell_length_b   14.52986308
_cell_length_c   8.18528872
_cell_angle_alpha   90.00000000
_cell_angle_beta   90.00000000
_cell_angle_gamma   90.00000000
_symmetry_Int_Tables_number   1
_chemical_formula_structural   LiF
_chemical_formula_sum   'Li56 F56'
_cell_volume   1469.32653869
_cell_formula_units_Z   56
loop_
 _symmetry_equiv_pos_site_id
 _symmetry_equiv_pos_as_xyz
  1  'x, y, z'
loop_
 _atom_site_type_symbol
 _atom_site_label
 _atom_site_symmetry_multiplicity
 _atom_site_fract_x
 _atom_site_fract_y
 _atom_site_fract_z
 _atom_site_occupancy
  F  F0  1  0.36756209  0.26789283  0.35066603  1
  F  F1  1  0.63243791  0.73210717  0.35066603  1
  F  F2  1  0.13243791  0.76789283  0.64933397  1
  F  F3  1  0.86756209  0.23210717  0.64933397  1
  F  F4  1  0.63243791  0.73210717  0.64933397  1
  F  F5  1  0.36756209  0.26789283  0.64933397  1
  F  F6  1  0.86756209  0.23210717  0.35066603  1
  F  F7  1  0.13243791  0.76789283  0.35066603  1
  F  F8  1  0.00000000  0.50000000  0.13599507  1
  F  F9  1  0.50000000  0.00000000  0.86400493  1
  F  F10  1  0.00000000  0.50000000  0.86400493  1
  F  F11  1  0.50000000  0.00000000  0.13599507  1
  F  F12  1  0.84445318  0.10118243  0.44061660  1
  F  F13  1  0.15554682  0.89881757  0.44061660  1
  F  F14  1  0.65554682  0.60118243  0.55938340  1
  F  F15  1  0.34445318  0.39881757  0.55938340  1
  F  F16  1  0.15554682  0.89881757  0.55938340  1
  F  F17  1  0.84445318  0.10118243  0.55938340  1
  F  F18  1  0.34445318  0.39881757  0.44061660  1
  F  F19  1  0.65554682  0.60118243  0.44061660  1
  F  F20  1  0.53858256  0.72233136  0.00000000  1
  F  F21  1  0.46141744  0.27766864  -0.00000000  1
  F  F22  1  0.96141744  0.22233136  0.00000000  1
  F  F23  1  0.03858256  0.77766864  -0.00000000  1
  F  F24  1  0.44679913  0.65514420  0.50000000  1
  F  F25  1  0.55320087  0.34485580  0.50000000  1
  F  F26  1  0.05320087  0.15514420  0.50000000  1
  F  F27  1  0.94679913  0.84485580  0.50000000  1
  F  F28  1  0.93772168  0.31136222  0.08070336  1
  F  F29  1  0.06227832  0.68863778  0.08070336  1
  F  F30  1  0.56227832  0.81136222  0.91929664  1
  F  F31  1  0.43772168  0.18863778  0.91929664  1
  F  F32  1  0.06227832  0.68863778  0.91929664  1
  F  F33  1  0.93772168  0.31136222  0.91929664  1
  F  F34  1  0.43772168  0.18863778  0.08070336  1
  F  F35  1  0.56227832  0.81136222  0.08070336  1
  F  F36  1  0.09561620  0.68051774  0.36041700  1
  F  F37  1  0.90438380  0.31948226  0.36041700  1
  F  F38  1  0.40438380  0.18051774  0.63958300  1
  F  F39  1  0.59561620  0.81948226  0.63958300  1
  F  F40  1  0.90438380  0.31948226  0.63958300  1
  F  F41  1  0.09561620  0.68051774  0.63958300  1
  F  F42  1  0.59561620  0.81948226  0.36041700  1
  F  F43  1  0.40438380  0.18051774  0.36041700  1
  F  F44  1  0.46985230  0.33980014  0.50000000  1
  F  F45  1  0.53014770  0.66019986  0.50000000  1
  F  F46  1  0.03014770  0.83980014  0.50000000  1
  F  F47  1  0.96985230  0.16019986  0.50000000  1
  F  F48  1  0.11988228  0.90405235  0.10331734  1
  F  F49  1  0.88011772  0.09594765  0.10331734  1
  F  F50  1  0.38011772  0.40405235  0.89668266  1
  F  F51  1  0.61988228  0.59594765  0.89668266  1
  F  F52  1  0.88011772  0.09594765  0.89668266  1
  F  F53  1  0.11988228  0.90405235  0.89668266  1
  F  F54  1  0.61988228  0.59594765  0.10331734  1
  F  F55  1  0.38011772  0.40405235  0.10331734  1
  Li  Li56  1  0.75850478  0.05050908  0.50000000  1
  Li  Li57  1  0.24149522  0.94949092  0.50000000  1
  Li  Li58  1  0.74149522  0.55050908  0.50000000  1
  Li  Li59  1  0.25850478  0.44949092  0.50000000  1
  Li  Li60  1  0.68770860  0.21182790  0.36296824  1
  Li  Li61  1  -0.68770860  -0.21182790  0.36296824  1
  Li  Li62  1  -0.18770860  0.71182790  -0.36296824  1
  Li  Li63  1  1.18770860  0.28817210  -0.36296824  1
  Li  Li64  1  -0.68770860  -0.21182790  -0.36296824  1
  Li  Li65  1  0.68770860  0.21182790  -0.36296824  1
  Li  Li66  1  1.18770860  0.28817210  0.36296824  1
  Li  Li67  1  -0.18770860  0.71182790  0.36296824  1
  Li  Li68  1  0.00000000  0.50000000  0.50000000  1
  Li  Li69  1  0.50000000  0.00000000  0.50000000  1
  Li  Li70  1  0.31320274  0.52616839  0.00000000  1
  Li  Li71  1  0.68679726  0.47383161  0.00000000  1
  Li  Li72  1  0.18679726  0.02616839  -0.00000000  1
  Li  Li73  1  0.81320274  0.97383161  -0.00000000  1
  Li  Li74  1  0.93215540  0.84397685  0.14095504  1
  Li  Li75  1  0.06784460  0.15602315  0.14095504  1
  Li  Li76  1  0.56784460  0.34397685  0.85904496  1
  Li  Li77  1  0.43215540  0.65602315  0.85904496  1
  Li  Li78  1  0.06784460  0.15602315  0.85904496  1
  Li  Li79  1  0.93215540  0.84397685  0.85904496  1
  Li  Li80  1  0.43215540  0.65602315  0.14095504  1
  Li  Li81  1  0.56784460  0.34397685  0.14095504  1
  Li  Li82  1  0.11624504  0.63547932  0.00000000  1
  Li  Li83  1  0.88375496  0.36452068  0.00000000  1
  Li  Li84  1  0.38375496  0.13547932  0.00000000  1
  Li  Li85  1  0.61624504  0.86452068  -0.00000000  1
  Li  Li86  1  0.41610343  0.78326724  0.50000000  1
  Li  Li87  1  0.58389657  0.21673276  0.50000000  1
  Li  Li88  1  0.08389657  0.28326724  0.50000000  1
  Li  Li89  1  0.91610343  0.71673276  0.50000000  1
  Li  Li90  1  0.94845922  0.80509575  0.61398834  1
  Li  Li91  1  0.05154078  0.19490425  0.61398834  1
  Li  Li92  1  0.55154078  0.30509575  0.38601166  1
  Li  Li93  1  0.44845922  0.69490425  0.38601166  1
  Li  Li94  1  0.05154078  0.19490425  0.38601166  1
  Li  Li95  1  0.94845922  0.80509575  0.38601166  1
  Li  Li96  1  0.44845922  0.69490425  0.61398834  1
  Li  Li97  1  0.55154078  0.30509575  0.61398834  1
  Li  Li98  1  0.00000000  0.50000000  0.00000000  1
  Li  Li99  1  0.50000000  0.00000000  0.00000000  1
  Li  Li100  1  0.00000000  0.50000000  0.29590771  1
  Li  Li101  1  0.50000000  0.00000000  0.70409229  1
  Li  Li102  1  0.00000000  0.50000000  0.70409229  1
  Li  Li103  1  0.50000000  0.00000000  0.29590771  1
  Li  Li104  1  0.36040538  0.63259440  0.35489393  1
  Li  Li105  1  0.63959462  0.36740560  0.35489393  1
  Li  Li106  1  0.13959462  0.13259440  0.64510607  1
  Li  Li107  1  0.86040538  0.86740560  0.64510607  1
  Li  Li108  1  0.63959462  0.36740560  0.64510607  1
  Li  Li109  1  0.36040538  0.63259440  0.64510607  1
  Li  Li110  1  0.86040538  0.86740560  0.35489393  1
  Li  Li111  1  0.13959462  0.13259440  0.35489393  1
