# generated using pymatgen
data_Li2Y2As4P2Se
_symmetry_space_group_name_H-M   'P 1'
_cell_length_a   5.53732767
_cell_length_b   5.72982206
_cell_length_c   7.02907223
_cell_angle_alpha   93.24332088
_cell_angle_beta   96.97933786
_cell_angle_gamma   102.81112349
_symmetry_Int_Tables_number   1
_chemical_formula_structural   Li2Y2As4P2Se
_chemical_formula_sum   'Li2 Y2 As4 P2 Se1'
_cell_volume   215.04941446
_cell_formula_units_Z   1
loop_
 _symmetry_equiv_pos_site_id
 _symmetry_equiv_pos_as_xyz
  1  'x, y, z'
loop_
 _atom_site_type_symbol
 _atom_site_label
 _atom_site_symmetry_multiplicity
 _atom_site_fract_x
 _atom_site_fract_y
 _atom_site_fract_z
 _atom_site_occupancy
  Se  Se0  1  0.12500000  0.00000000  0.25000000  1
  P  P1  1  0.00000000  0.00000000  0.00000000  1
  P  P2  1  0.37500000  0.00000000  0.25000000  1
  As  As3  1  0.25000000  0.25000000  0.25000000  1
  As  As4  1  0.00000000  0.25000000  0.12500000  1
  As  As5  1  0.47763649  0.32274883  0.41101981  1
  As  As6  1  0.58629190  0.12981578  0.57071051  1
  Li  Li7  1  0.20001341  0.87976611  0.15076000  1
  Li  Li8  1  0.19915009  0.58080224  0.24300118  1
  Y  Y9  1  0.29472386  0.00947125  0.41238996  1
  Y  Y10  1  0.34965903  0.87854871  0.30809838  1
