# generated using pymatgen
data_Li2Y2Sb2P3
_symmetry_space_group_name_H-M   'P 1'
_cell_length_a   4.22022831
_cell_length_b   4.37697728
_cell_length_c   6.82217333
_cell_angle_alpha   96.10257877
_cell_angle_beta   103.29014786
_cell_angle_gamma   114.51163349
_symmetry_Int_Tables_number   1
_chemical_formula_structural   Li2Y2Sb2P3
_chemical_formula_sum   'Li2 Y2 Sb2 P3'
_cell_volume   108.65734563
_cell_formula_units_Z   1
loop_
 _symmetry_equiv_pos_site_id
 _symmetry_equiv_pos_as_xyz
  1  'x, y, z'
loop_
 _atom_site_type_symbol
 _atom_site_label
 _atom_site_symmetry_multiplicity
 _atom_site_fract_x
 _atom_site_fract_y
 _atom_site_fract_z
 _atom_site_occupancy
  Y  Y0  1  0.00000000  0.00000000  0.00000000  1
  Y  Y1  1  0.50000000  0.50000000  0.50000000  1
  P  P2  1  0.25000000  0.25000000  0.25000000  1
  P  P3  1  0.75000000  0.25000000  0.00000000  1
  P  P4  1  0.25000000  0.75000000  0.50000000  1
  Li  Li5  1  0.30547854  0.49146638  0.69272770  1
  Li  Li6  1  0.69534372  0.78283524  0.79145016  1
  Sb  Sb7  1  0.35081625  0.12801446  0.54077443  1
  Sb  Sb8  1  0.10106069  0.23306406  0.97984181  1
