# generated using pymatgen
data_LiF
_symmetry_space_group_name_H-M   'P 1'
_cell_length_a   5.84896388
_cell_length_b   13.36151446
_cell_length_c   12.35993749
_cell_angle_alpha   90.00000000
_cell_angle_beta   90.00000000
_cell_angle_gamma   90.00000000
_symmetry_Int_Tables_number   1
_chemical_formula_structural   LiF
_chemical_formula_sum   'Li42 F42'
_cell_volume   965.94166531
_cell_formula_units_Z   42
loop_
 _symmetry_equiv_pos_site_id
 _symmetry_equiv_pos_as_xyz
  1  'x, y, z'
loop_
 _atom_site_type_symbol
 _atom_site_label
 _atom_site_symmetry_multiplicity
 _atom_site_fract_x
 _atom_site_fract_y
 _atom_site_fract_z
 _atom_site_occupancy
  F  F0  1  0.19478693  0.69764475  0.67296342  1
  F  F1  1  0.80521307  0.30235525  0.67296342  1
  F  F2  1  0.30521307  0.19764475  0.32703658  1
  F  F3  1  0.69478693  0.80235525  0.32703658  1
  F  F4  1  0.80521307  0.30235525  0.32703658  1
  F  F5  1  0.19478693  0.69764475  0.32703658  1
  F  F6  1  0.69478693  0.80235525  0.67296342  1
  F  F7  1  0.30521307  0.19764475  0.67296342  1
  F  F8  1  0.00000000  0.50000000  0.50000000  1
  F  F9  1  0.50000000  0.00000000  0.50000000  1
  F  F10  1  0.00000000  0.00000000  0.62468117  1
  F  F11  1  0.50000000  0.50000000  0.37531883  1
  F  F12  1  0.00000000  0.00000000  0.37531883  1
  F  F13  1  0.50000000  0.50000000  0.62468117  1
  F  F14  1  0.10808680  0.00719406  0.39756274  1
  F  F15  1  0.89191320  0.99280594  0.39756274  1
  F  F16  1  0.39191320  0.50719406  0.60243726  1
  F  F17  1  0.60808680  0.49280594  0.60243726  1
  F  F18  1  0.89191320  0.99280594  0.60243726  1
  F  F19  1  0.10808680  0.00719406  0.60243726  1
  F  F20  1  0.60808680  0.49280594  0.39756274  1
  F  F21  1  0.39191320  0.50719406  0.39756274  1
  F  F22  1  0.54732627  0.36461054  0.05527157  1
  F  F23  1  0.45267373  0.63538946  0.05527157  1
  F  F24  1  0.95267373  0.86461054  0.94472843  1
  F  F25  1  0.04732627  0.13538946  0.94472843  1
  F  F26  1  0.45267373  0.63538946  0.94472843  1
  F  F27  1  0.54732627  0.36461054  0.94472843  1
  F  F28  1  0.04732627  0.13538946  0.05527157  1
  F  F29  1  0.95267373  0.86461054  0.05527157  1
  F  F30  1  0.00000000  0.50000000  0.90927093  1
  F  F31  1  0.50000000  0.00000000  0.09072907  1
  F  F32  1  0.00000000  0.50000000  0.09072907  1
  F  F33  1  0.50000000  0.00000000  0.90927093  1
  F  F34  1  0.14949897  0.59539164  0.43205409  1
  F  F35  1  0.85050103  0.40460836  0.43205409  1
  F  F36  1  0.35050103  0.09539164  0.56794591  1
  F  F37  1  0.64949897  0.90460836  0.56794591  1
  F  F38  1  0.85050103  0.40460836  0.56794591  1
  F  F39  1  0.14949897  0.59539164  0.56794591  1
  F  F40  1  0.64949897  0.90460836  0.43205409  1
  F  F41  1  0.35050103  0.09539164  0.43205409  1
  Li  Li42  1  0.28776321  0.05229377  -0.00000000  1
  Li  Li43  1  0.71223679  0.94770623  -0.00000000  1
  Li  Li44  1  0.21223679  0.55229377  -0.00000000  1
  Li  Li45  1  0.78776321  0.44770623  -0.00000000  1
  Li  Li46  1  0.20390945  0.40782988  0.00000000  1
  Li  Li47  1  0.79609055  0.59217012  -0.00000000  1
  Li  Li48  1  0.29609055  0.90782988  -0.00000000  1
  Li  Li49  1  0.70390945  0.09217012  -0.00000000  1
  Li  Li50  1  0.34360764  0.79493176  0.57829789  1
  Li  Li51  1  -0.34360764  -0.79493176  0.57829789  1
  Li  Li52  1  0.15639236  1.29493176  -0.57829789  1
  Li  Li53  1  0.84360764  -0.29493176  -0.57829789  1
  Li  Li54  1  -0.34360764  -0.79493176  -0.57829789  1
  Li  Li55  1  0.34360764  0.79493176  -0.57829789  1
  Li  Li56  1  0.84360764  -0.29493176  0.57829789  1
  Li  Li57  1  0.15639236  1.29493176  0.57829789  1
  Li  Li58  1  0.00000000  0.00000000  0.00000000  1
  Li  Li59  1  0.50000000  0.50000000  -0.00000000  1
  Li  Li60  1  0.61898892  0.29959529  0.50000000  1
  Li  Li61  1  0.38101108  0.70040471  0.50000000  1
  Li  Li62  1  0.88101108  0.79959529  0.50000000  1
  Li  Li63  1  0.11898892  0.20040471  0.50000000  1
  Li  Li64  1  0.11052534  0.71327228  0.50000000  1
  Li  Li65  1  0.88947466  0.28672772  0.50000000  1
  Li  Li66  1  0.38947466  0.21327228  0.50000000  1
  Li  Li67  1  0.61052534  0.78672772  0.50000000  1
  Li  Li68  1  0.94717516  0.91802466  0.10625231  1
  Li  Li69  1  0.05282484  0.08197534  0.10625231  1
  Li  Li70  1  0.55282484  0.41802466  0.89374769  1
  Li  Li71  1  0.44717516  0.58197534  0.89374769  1
  Li  Li72  1  0.05282484  0.08197534  0.89374769  1
  Li  Li73  1  0.94717516  0.91802466  0.89374769  1
  Li  Li74  1  0.44717516  0.58197534  0.10625231  1
  Li  Li75  1  0.55282484  0.41802466  0.10625231  1
  Li  Li76  1  0.10094179  0.76799354  0.80650917  1
  Li  Li77  1  0.89905821  0.23200646  0.80650917  1
  Li  Li78  1  0.39905821  0.26799354  0.19349083  1
  Li  Li79  1  0.60094179  0.73200646  0.19349083  1
  Li  Li80  1  0.89905821  0.23200646  0.19349083  1
  Li  Li81  1  0.10094179  0.76799354  0.19349083  1
  Li  Li82  1  0.60094179  0.73200646  0.80650917  1
  Li  Li83  1  0.39905821  0.26799354  0.80650917  1
