# generated using pymatgen
data_Li2Te4Mo2P3
_symmetry_space_group_name_H-M   'P 1'
_cell_length_a   4.63864444
_cell_length_b   4.91127581
_cell_length_c   6.42054740
_cell_angle_alpha   93.71780060
_cell_angle_beta   98.07676115
_cell_angle_gamma   104.59806827
_symmetry_Int_Tables_number   1
_chemical_formula_structural   Li2Te4Mo2P3
_chemical_formula_sum   'Li2 Te4 Mo2 P3'
_cell_volume   139.37541259
_cell_formula_units_Z   1
loop_
 _symmetry_equiv_pos_site_id
 _symmetry_equiv_pos_as_xyz
  1  'x, y, z'
loop_
 _atom_site_type_symbol
 _atom_site_label
 _atom_site_symmetry_multiplicity
 _atom_site_fract_x
 _atom_site_fract_y
 _atom_site_fract_z
 _atom_site_occupancy
  Te  Te0  1  0.00000000  0.00000000  0.00000000  1
  Te  Te1  1  0.50000000  0.50000000  0.50000000  1
  Te  Te2  1  0.50000000  0.50000000  0.00000000  1
  Te  Te3  1  0.50000000  0.00000000  0.50000000  1
  P  P4  1  0.00000000  0.50000000  0.50000000  1
  P  P5  1  0.02512942  0.82541962  0.53336039  1
  P  P6  1  0.03451974  0.58684489  0.17333391  1
  Mo  Mo7  1  0.78215278  0.66147480  0.32636019  1
  Mo  Mo8  1  0.20825591  0.64795424  0.95139039  1
  Li  Li9  1  0.83122809  0.30825462  0.33084769  1
  Li  Li10  1  0.53434976  0.53021374  0.71809509  1
