# generated using pymatgen
data_Li2Y2As2P3
_symmetry_space_group_name_H-M   'P 1'
_cell_length_a   4.15608174
_cell_length_b   4.38797809
_cell_length_c   6.53502450
_cell_angle_alpha   96.13389454
_cell_angle_beta   102.38963528
_cell_angle_gamma   111.05639783
_symmetry_Int_Tables_number   1
_chemical_formula_structural   Li2Y2As2P3
_chemical_formula_sum   'Li2 Y2 As2 P3'
_cell_volume   106.39498044
_cell_formula_units_Z   1
loop_
 _symmetry_equiv_pos_site_id
 _symmetry_equiv_pos_as_xyz
  1  'x, y, z'
loop_
 _atom_site_type_symbol
 _atom_site_label
 _atom_site_symmetry_multiplicity
 _atom_site_fract_x
 _atom_site_fract_y
 _atom_site_fract_z
 _atom_site_occupancy
  P  P0  1  0.12500000  0.00000000  0.25000000  1
  P  P1  1  0.00000000  0.00000000  0.00000000  1
  P  P2  1  0.37500000  0.00000000  0.25000000  1
  As  As3  1  0.25000000  0.25000000  0.25000000  1
  As  As4  1  0.00000000  0.25000000  0.12500000  1
  Li  Li5  1  0.89357714  0.27513630  0.55570705  1
  Li  Li6  1  0.61691904  0.35755468  0.24667125  1
  Y  Y7  1  0.95305456  0.66309077  0.49776625  1
  Y  Y8  1  0.40514138  0.92442618  0.51125008  1
