# generated using pymatgen
data_Li4TeF2
_symmetry_space_group_name_H-M   'P 1'
_cell_length_a   10.78878579
_cell_length_b   10.78878579
_cell_length_c   26.13032441
_cell_angle_alpha   90.00000000
_cell_angle_beta   90.00000000
_cell_angle_gamma   90.00000000
_symmetry_Int_Tables_number   1
_chemical_formula_structural   Li4TeF2
_chemical_formula_sum   'Li96 Te24 F48'
_cell_volume   3041.51485602
_cell_formula_units_Z   24
loop_
 _symmetry_equiv_pos_site_id
 _symmetry_equiv_pos_as_xyz
  1  'x, y, z'
loop_
 _atom_site_type_symbol
 _atom_site_label
 _atom_site_symmetry_multiplicity
 _atom_site_fract_x
 _atom_site_fract_y
 _atom_site_fract_z
 _atom_site_occupancy
  F  F0  1  0.74475745  0.82411095  0.47465575  1
  F  F1  1  -0.24475745  -0.82411095  0.97465575  1
  F  F2  1  -0.57411095  1.49475745  0.72465575  1
  F  F3  1  1.07411095  -0.49475745  1.22465575  1
  F  F4  1  -0.24475745  0.82411095  -0.47465575  1
  F  F5  1  0.74475745  -0.82411095  0.02534425  1
  F  F6  1  1.07411095  1.49475745  0.27534425  1
  F  F7  1  -0.57411095  -0.49475745  -0.22465575  1
  F  F8  1  -0.74475745  -0.82411095  -0.47465575  1
  F  F9  1  1.24475745  0.82411095  0.02534425  1
  F  F10  1  1.57411095  -0.49475745  0.27534425  1
  F  F11  1  -0.07411095  1.49475745  -0.22465575  1
  F  F12  1  1.24475745  -0.82411095  0.47465575  1
  F  F13  1  -0.74475745  0.82411095  0.97465575  1
  F  F14  1  -0.07411095  -0.49475745  0.72465575  1
  F  F15  1  1.57411095  1.49475745  1.22465575  1
  F  F16  1  1.24475745  1.32411095  0.97465575  1
  F  F17  1  0.25524255  -0.32411095  1.47465575  1
  F  F18  1  -0.07411095  1.99475745  1.22465575  1
  F  F19  1  1.57411095  0.00524255  1.72465575  1
  F  F20  1  0.25524255  1.32411095  0.02534425  1
  F  F21  1  1.24475745  -0.32411095  0.52534425  1
  F  F22  1  1.57411095  1.99475745  0.77534425  1
  F  F23  1  -0.07411095  0.00524255  0.27534425  1
  F  F24  1  -0.24475745  -0.32411095  0.02534425  1
  F  F25  1  1.74475745  1.32411095  0.52534425  1
  F  F26  1  2.07411095  0.00524255  0.77534425  1
  F  F27  1  0.42588905  1.99475745  0.27534425  1
  F  F28  1  1.74475745  -0.32411095  0.97465575  1
  F  F29  1  -0.24475745  1.32411095  1.47465575  1
  F  F30  1  0.42588905  0.00524255  1.22465575  1
  F  F31  1  2.07411095  1.99475745  1.72465575  1
  F  F32  1  0.00000000  0.25000000  0.09183313  1
  F  F33  1  0.00000000  0.75000000  0.34183313  1
  F  F34  1  0.50000000  0.25000000  0.90816687  1
  F  F35  1  0.50000000  0.75000000  0.65816687  1
  F  F36  1  0.00000000  0.75000000  0.90816687  1
  F  F37  1  0.00000000  0.25000000  0.65816687  1
  F  F38  1  0.50000000  0.75000000  0.09183313  1
  F  F39  1  0.50000000  0.25000000  0.34183313  1
  F  F40  1  0.50000000  0.75000000  0.59183313  1
  F  F41  1  0.50000000  0.25000000  0.84183313  1
  F  F42  1  0.00000000  0.75000000  0.40816687  1
  F  F43  1  0.00000000  0.25000000  0.15816687  1
  F  F44  1  0.50000000  0.25000000  0.40816687  1
  F  F45  1  0.50000000  0.75000000  0.15816687  1
  F  F46  1  0.00000000  0.25000000  0.59183313  1
  F  F47  1  0.00000000  0.75000000  0.84183313  1
  Li  Li48  1  0.97810806  0.19168351  0.71412149  1
  Li  Li49  1  0.52189194  0.80831649  0.21412149  1
  Li  Li50  1  0.05831649  0.72810806  0.96412149  1
  Li  Li51  1  0.44168351  0.27189194  0.46412149  1
  Li  Li52  1  0.52189194  0.19168351  0.28587851  1
  Li  Li53  1  0.97810806  0.80831649  0.78587851  1
  Li  Li54  1  0.44168351  0.72810806  0.03587851  1
  Li  Li55  1  0.05831649  0.27189194  0.53587851  1
  Li  Li56  1  0.02189194  0.80831649  0.28587851  1
  Li  Li57  1  0.47810806  0.19168351  0.78587851  1
  Li  Li58  1  0.94168351  0.27189194  0.03587851  1
  Li  Li59  1  0.55831649  0.72810806  0.53587851  1
  Li  Li60  1  0.47810806  0.80831649  0.71412149  1
  Li  Li61  1  0.02189194  0.19168351  0.21412149  1
  Li  Li62  1  0.55831649  0.27189194  0.96412149  1
  Li  Li63  1  0.94168351  0.72810806  0.46412149  1
  Li  Li64  1  0.47810806  0.69168351  0.21412149  1
  Li  Li65  1  0.02189194  0.30831649  0.71412149  1
  Li  Li66  1  0.55831649  0.22810806  0.46412149  1
  Li  Li67  1  0.94168351  0.77189194  0.96412149  1
  Li  Li68  1  0.02189194  0.69168351  0.78587851  1
  Li  Li69  1  0.47810806  0.30831649  0.28587851  1
  Li  Li70  1  0.94168351  0.22810806  0.53587851  1
  Li  Li71  1  0.55831649  0.77189194  0.03587851  1
  Li  Li72  1  0.52189194  0.30831649  0.78587851  1
  Li  Li73  1  0.97810806  0.69168351  0.28587851  1
  Li  Li74  1  0.44168351  0.77189194  0.53587851  1
  Li  Li75  1  0.05831649  0.22810806  0.03587851  1
  Li  Li76  1  0.97810806  0.30831649  0.21412149  1
  Li  Li77  1  0.52189194  0.69168351  0.71412149  1
  Li  Li78  1  0.05831649  0.77189194  0.46412149  1
  Li  Li79  1  0.44168351  0.22810806  0.96412149  1
  Li  Li80  1  0.00000000  0.25000000  0.97835362  1
  Li  Li81  1  0.00000000  0.75000000  0.22835362  1
  Li  Li82  1  0.50000000  0.25000000  0.02164638  1
  Li  Li83  1  0.50000000  0.75000000  0.77164638  1
  Li  Li84  1  0.00000000  0.75000000  0.02164638  1
  Li  Li85  1  0.00000000  0.25000000  0.77164638  1
  Li  Li86  1  0.50000000  0.75000000  0.97835362  1
  Li  Li87  1  0.50000000  0.25000000  0.22835362  1
  Li  Li88  1  0.50000000  0.75000000  0.47835362  1
  Li  Li89  1  0.50000000  0.25000000  0.72835362  1
  Li  Li90  1  0.00000000  0.75000000  0.52164638  1
  Li  Li91  1  0.00000000  0.25000000  0.27164638  1
  Li  Li92  1  0.50000000  0.25000000  0.52164638  1
  Li  Li93  1  0.50000000  0.75000000  0.27164638  1
  Li  Li94  1  0.00000000  0.25000000  0.47835362  1
  Li  Li95  1  0.00000000  0.75000000  0.72835362  1
  Li  Li96  1  0.16077636  0.83824034  0.89669411  1
  Li  Li97  1  0.33922364  0.16175966  0.39669411  1
  Li  Li98  1  0.41175966  0.91077636  0.14669411  1
  Li  Li99  1  0.08824034  0.08922364  0.64669411  1
  Li  Li100  1  0.33922364  0.83824034  0.10330589  1
  Li  Li101  1  0.16077636  0.16175966  0.60330589  1
  Li  Li102  1  0.08824034  0.91077636  0.85330589  1
  Li  Li103  1  0.41175966  0.08922364  0.35330589  1
  Li  Li104  1  0.83922364  0.16175966  0.10330589  1
  Li  Li105  1  0.66077636  0.83824034  0.60330589  1
  Li  Li106  1  0.58824034  0.08922364  0.85330589  1
  Li  Li107  1  0.91175966  0.91077636  0.35330589  1
  Li  Li108  1  0.66077636  0.16175966  0.89669411  1
  Li  Li109  1  0.83922364  0.83824034  0.39669411  1
  Li  Li110  1  0.91175966  0.08922364  0.14669411  1
  Li  Li111  1  0.58824034  0.91077636  0.64669411  1
  Li  Li112  1  0.66077636  0.33824034  0.39669411  1
  Li  Li113  1  0.83922364  0.66175966  0.89669411  1
  Li  Li114  1  0.91175966  0.41077636  0.64669411  1
  Li  Li115  1  0.58824034  0.58922364  0.14669411  1
  Li  Li116  1  0.83922364  0.33824034  0.60330589  1
  Li  Li117  1  0.66077636  0.66175966  0.10330589  1
  Li  Li118  1  0.58824034  0.41077636  0.35330589  1
  Li  Li119  1  0.91175966  0.58922364  0.85330589  1
  Li  Li120  1  0.33922364  0.66175966  0.60330589  1
  Li  Li121  1  0.16077636  0.33824034  0.10330589  1
  Li  Li122  1  0.08824034  0.58922364  0.35330589  1
  Li  Li123  1  0.41175966  0.41077636  0.85330589  1
  Li  Li124  1  0.16077636  0.66175966  0.39669411  1
  Li  Li125  1  0.33922364  0.33824034  0.89669411  1
  Li  Li126  1  0.41175966  0.58922364  0.64669411  1
  Li  Li127  1  0.08824034  0.41077636  0.14669411  1
  Li  Li128  1  0.65593451  -0.00000000  0.25000000  1
  Li  Li129  1  0.84406549  -0.00000000  0.75000000  1
  Li  Li130  1  0.25000000  0.40593451  0.50000000  1
  Li  Li131  1  0.25000000  0.59406549  0.00000000  1
  Li  Li132  1  0.34406549  0.00000000  0.75000000  1
  Li  Li133  1  0.15593451  -0.00000000  0.25000000  1
  Li  Li134  1  0.75000000  0.59406549  0.50000000  1
  Li  Li135  1  0.75000000  0.40593451  -0.00000000  1
  Li  Li136  1  0.15593451  0.50000000  0.75000000  1
  Li  Li137  1  0.34406549  0.50000000  0.25000000  1
  Li  Li138  1  0.75000000  0.90593451  0.00000000  1
  Li  Li139  1  0.75000000  0.09406549  0.50000000  1
  Li  Li140  1  0.84406549  0.50000000  0.25000000  1
  Li  Li141  1  0.65593451  0.50000000  0.75000000  1
  Li  Li142  1  0.25000000  0.09406549  0.00000000  1
  Li  Li143  1  0.25000000  0.90593451  0.50000000  1
  Te  Te144  1  0.00000000  0.00000000  0.00000000  1
  Te  Te145  1  0.50000000  0.00000000  0.50000000  1
  Te  Te146  1  0.25000000  0.75000000  0.25000000  1
  Te  Te147  1  0.25000000  0.25000000  0.75000000  1
  Te  Te148  1  0.50000000  0.00000000  -0.00000000  1
  Te  Te149  1  0.00000000  0.00000000  0.50000000  1
  Te  Te150  1  0.25000000  0.75000000  0.75000000  1
  Te  Te151  1  0.25000000  0.25000000  0.25000000  1
  Te  Te152  1  0.50000000  0.50000000  0.50000000  1
  Te  Te153  1  0.00000000  0.50000000  0.00000000  1
  Te  Te154  1  0.75000000  0.25000000  0.75000000  1
  Te  Te155  1  0.75000000  0.75000000  0.25000000  1
  Te  Te156  1  0.00000000  0.50000000  0.50000000  1
  Te  Te157  1  0.50000000  0.50000000  0.00000000  1
  Te  Te158  1  0.75000000  0.25000000  0.25000000  1
  Te  Te159  1  0.75000000  0.75000000  0.75000000  1
  Te  Te160  1  0.00000000  0.25000000  0.37500000  1
  Te  Te161  1  0.00000000  0.75000000  0.62500000  1
  Te  Te162  1  0.50000000  0.25000000  0.62500000  1
  Te  Te163  1  0.50000000  0.75000000  0.37500000  1
  Te  Te164  1  0.50000000  0.75000000  0.87500000  1
  Te  Te165  1  0.50000000  0.25000000  0.12500000  1
  Te  Te166  1  0.00000000  0.75000000  0.12500000  1
  Te  Te167  1  0.00000000  0.25000000  0.87500000  1
