# generated using pymatgen
data_LiF
_symmetry_space_group_name_H-M   'P 1'
_cell_length_a   8.21826906
_cell_length_b   8.21826906
_cell_length_c   2.83831812
_cell_angle_alpha   90.00000000
_cell_angle_beta   90.00000000
_cell_angle_gamma   120.00000000
_symmetry_Int_Tables_number   1
_chemical_formula_structural   LiF
_chemical_formula_sum   'Li6 F6'
_cell_volume   166.01694289
_cell_formula_units_Z   6
loop_
 _symmetry_equiv_pos_site_id
 _symmetry_equiv_pos_as_xyz
  1  'x, y, z'
loop_
 _atom_site_type_symbol
 _atom_site_label
 _atom_site_symmetry_multiplicity
 _atom_site_fract_x
 _atom_site_fract_y
 _atom_site_fract_z
 _atom_site_occupancy
  F  F0  1  0.65460220  0.90511603  0.07924956  1
  F  F1  1  -0.90511603  -0.25051383  0.07924956  1
  F  F2  1  0.25051383  -0.65460220  0.07924956  1
  F  F3  1  -0.90511603  -0.65460220  -0.07924956  1
  F  F4  1  0.25051383  0.90511603  -0.07924956  1
  F  F5  1  0.65460220  -0.25051383  -0.07924956  1
  Li  Li6  1  0.12303666  0.87696334  0.50000000  1
  Li  Li7  1  0.12303666  0.24607331  0.50000000  1
  Li  Li8  1  0.75392669  0.87696334  0.50000000  1
  Li  Li9  1  0.73912146  0.26087854  0.50000000  1
  Li  Li10  1  0.73912146  0.47824291  0.50000000  1
  Li  Li11  1  0.52175709  0.26087854  0.50000000  1
