# generated using pymatgen
data_LiF
_symmetry_space_group_name_H-M   'P 1'
_cell_length_a   4.78216519
_cell_length_b   4.78216519
_cell_length_c   2.85682684
_cell_angle_alpha   90.00000000
_cell_angle_beta   90.00000000
_cell_angle_gamma   120.00000000
_symmetry_Int_Tables_number   1
_chemical_formula_structural   LiF
_chemical_formula_sum   'Li3 F3'
_cell_volume   56.58009835
_cell_formula_units_Z   3
loop_
 _symmetry_equiv_pos_site_id
 _symmetry_equiv_pos_as_xyz
  1  'x, y, z'
loop_
 _atom_site_type_symbol
 _atom_site_label
 _atom_site_symmetry_multiplicity
 _atom_site_fract_x
 _atom_site_fract_y
 _atom_site_fract_z
 _atom_site_occupancy
  F  F0  1  0.74106813  0.25893187  0.00000000  1
  F  F1  1  0.74106813  0.48213625  0.00000000  1
  F  F2  1  0.51786375  0.25893187  0.00000000  1
  Li  Li3  1  0.55126730  -0.55126730  0.50000000  1
  Li  Li4  1  0.55126730  1.10253460  0.50000000  1
  Li  Li5  1  -1.10253460  -0.55126730  0.50000000  1
