# generated using pymatgen
data_Li3Y2P3Se2
_symmetry_space_group_name_H-M   'P 1'
_cell_length_a   5.29027649
_cell_length_b   5.50618291
_cell_length_c   7.06882730
_cell_angle_alpha   94.08516443
_cell_angle_beta   98.48706377
_cell_angle_gamma   105.76615979
_symmetry_Int_Tables_number   1
_chemical_formula_structural   Li3Y2P3Se2
_chemical_formula_sum   'Li3 Y2 P3 Se2'
_cell_volume   194.64737641
_cell_formula_units_Z   1
loop_
 _symmetry_equiv_pos_site_id
 _symmetry_equiv_pos_as_xyz
  1  'x, y, z'
loop_
 _atom_site_type_symbol
 _atom_site_label
 _atom_site_symmetry_multiplicity
 _atom_site_fract_x
 _atom_site_fract_y
 _atom_site_fract_z
 _atom_site_occupancy
  Se  Se0  1  0.12500000  0.12500000  0.12500000  1
  Se  Se1  1  0.50000000  0.50000000  0.50000000  1
  Y  Y2  1  0.25000000  0.25000000  0.25000000  1
  Y  Y3  1  0.75000000  0.75000000  0.75000000  1
  P  P4  1  0.60434601  0.00317581  0.96252534  1
  P  P5  1  0.23753741  0.78177004  0.00393866  1
  P  P6  1  0.93371438  0.32483740  0.51734185  1
  Li  Li7  1  0.97417445  0.21414209  0.73670142  1
  Li  Li8  1  0.02820103  0.85005393  0.08673671  1
  Li  Li9  1  0.15389212  0.31691469  0.08048930  1
