# generated using pymatgen
data_LiF
_symmetry_space_group_name_H-M   'P 1'
_cell_length_a   11.74468753
_cell_length_b   11.74468753
_cell_length_c   7.02094141
_cell_angle_alpha   90.00000000
_cell_angle_beta   90.00000000
_cell_angle_gamma   120.00000000
_symmetry_Int_Tables_number   1
_chemical_formula_structural   LiF
_chemical_formula_sum   'Li24 F24'
_cell_volume   838.70438599
_cell_formula_units_Z   24
loop_
 _symmetry_equiv_pos_site_id
 _symmetry_equiv_pos_as_xyz
  1  'x, y, z'
loop_
 _atom_site_type_symbol
 _atom_site_label
 _atom_site_symmetry_multiplicity
 _atom_site_fract_x
 _atom_site_fract_y
 _atom_site_fract_z
 _atom_site_occupancy
  F  F0  1  0.77153959  0.22846041  0.00000000  1
  F  F1  1  0.77153959  0.54307918  -0.00000000  1
  F  F2  1  0.45692082  0.22846041  0.00000000  1
  F  F3  1  0.33333333  0.66666667  0.00000000  1
  F  F4  1  0.54735818  0.45264182  0.00000000  1
  F  F5  1  0.54735818  0.09471635  0.00000000  1
  F  F6  1  0.90528365  0.45264182  0.00000000  1
  F  F7  1  0.07106994  0.92893006  0.50000000  1
  F  F8  1  0.07106994  0.14213989  0.50000000  1
  F  F9  1  0.85786011  0.92893006  0.50000000  1
  F  F10  1  0.53477683  0.68555318  0.77961200  1
  F  F11  1  0.31444682  0.84922365  0.77961200  1
  F  F12  1  0.15077635  0.46522317  0.77961200  1
  F  F13  1  0.31444682  0.46522317  0.22038800  1
  F  F14  1  0.15077635  0.68555318  0.22038800  1
  F  F15  1  0.53477683  0.84922365  0.22038800  1
  F  F16  1  0.66666667  0.33333333  0.84253892  1
  F  F17  1  0.66666667  0.33333333  0.15746108  1
  F  F18  1  0.67387620  0.06239932  0.26724585  1
  F  F19  1  0.93760068  0.61147688  0.26724585  1
  F  F20  1  0.38852312  0.32612380  0.26724585  1
  F  F21  1  0.93760068  0.32612380  0.73275415  1
  F  F22  1  0.38852312  0.06239932  0.73275415  1
  F  F23  1  0.67387620  0.61147688  0.73275415  1
  Li  Li24  1  0.31869649  0.80503830  0.92250278  1
  Li  Li25  1  -0.80503830  -0.48634181  0.92250278  1
  Li  Li26  1  0.48634181  -0.31869649  0.92250278  1
  Li  Li27  1  -0.80503830  -0.31869649  -0.92250278  1
  Li  Li28  1  0.48634181  0.80503830  -0.92250278  1
  Li  Li29  1  0.31869649  -0.48634181  -0.92250278  1
  Li  Li30  1  0.49010968  0.09072073  0.63569517  1
  Li  Li31  1  0.90927927  0.39938895  0.63569517  1
  Li  Li32  1  0.60061105  0.50989032  0.63569517  1
  Li  Li33  1  0.90927927  0.50989032  0.36430483  1
  Li  Li34  1  0.60061105  0.09072073  0.36430483  1
  Li  Li35  1  0.49010968  0.39938895  0.36430483  1
  Li  Li36  1  0.88642552  0.24254418  0.44522284  1
  Li  Li37  1  0.75745582  0.64388134  0.44522284  1
  Li  Li38  1  0.35611866  0.11357448  0.44522284  1
  Li  Li39  1  0.75745582  0.11357448  0.55477716  1
  Li  Li40  1  0.35611866  0.24254418  0.55477716  1
  Li  Li41  1  0.88642552  0.64388134  0.55477716  1
  Li  Li42  1  0.15078544  0.84921456  0.00000000  1
  Li  Li43  1  0.15078544  0.30157088  0.00000000  1
  Li  Li44  1  0.69842912  0.84921456  0.00000000  1
  Li  Li45  1  0.00000000  0.00000000  0.50000000  1
  Li  Li46  1  0.33333333  0.66666667  0.50000000  1
  Li  Li47  1  0.66666667  0.33333333  0.50000000  1
