# generated using pymatgen
data_LiCaF3
_symmetry_space_group_name_H-M   'P 1'
_cell_length_a   16.34807194
_cell_length_b   16.34807194
_cell_length_c   8.33964015
_cell_angle_alpha   90.00000000
_cell_angle_beta   90.00000000
_cell_angle_gamma   120.00000000
_symmetry_Int_Tables_number   1
_chemical_formula_structural   LiCaF3
_chemical_formula_sum   'Li18 Ca18 F54'
_cell_volume   1930.23872137
_cell_formula_units_Z   18
loop_
 _symmetry_equiv_pos_site_id
 _symmetry_equiv_pos_as_xyz
  1  'x, y, z'
loop_
 _atom_site_type_symbol
 _atom_site_label
 _atom_site_symmetry_multiplicity
 _atom_site_fract_x
 _atom_site_fract_y
 _atom_site_fract_z
 _atom_site_occupancy
  Ca  Ca0  1  0.65221005  0.41038064  0.87986568  1
  Ca  Ca1  1  -0.41038064  0.24182941  0.87986568  1
  Ca  Ca2  1  -0.24182941  -0.65221005  0.87986568  1
  Ca  Ca3  1  0.65221005  0.41038064  -0.87986568  1
  Ca  Ca4  1  -0.41038064  0.24182941  -0.87986568  1
  Ca  Ca5  1  -0.24182941  -0.65221005  -0.87986568  1
  Ca  Ca6  1  0.41038064  0.65221005  -0.87986568  1
  Ca  Ca7  1  0.24182941  -0.41038064  -0.87986568  1
  Ca  Ca8  1  -0.65221005  -0.24182941  -0.87986568  1
  Ca  Ca9  1  0.41038064  0.65221005  0.87986568  1
  Ca  Ca10  1  0.24182941  -0.41038064  0.87986568  1
  Ca  Ca11  1  -0.65221005  -0.24182941  0.87986568  1
  Ca  Ca12  1  0.38286490  0.21289694  0.50000000  1
  Ca  Ca13  1  0.78710306  0.16996796  0.50000000  1
  Ca  Ca14  1  0.83003204  0.61713510  0.50000000  1
  Ca  Ca15  1  0.21289694  0.38286490  0.50000000  1
  Ca  Ca16  1  0.16996796  0.78710306  0.50000000  1
  Ca  Ca17  1  0.61713510  0.83003204  0.50000000  1
  F  F18  1  0.00000000  0.00000000  0.50000000  1
  F  F19  1  0.77549070  0.75134686  0.39069825  1
  F  F20  1  0.24865314  0.02414384  0.39069825  1
  F  F21  1  0.97585616  0.22450930  0.39069825  1
  F  F22  1  0.77549070  0.75134686  0.60930175  1
  F  F23  1  0.24865314  0.02414384  0.60930175  1
  F  F24  1  0.97585616  0.22450930  0.60930175  1
  F  F25  1  0.75134686  0.77549070  0.60930175  1
  F  F26  1  0.02414384  0.24865314  0.60930175  1
  F  F27  1  0.22450930  0.97585616  0.60930175  1
  F  F28  1  0.75134686  0.77549070  0.39069825  1
  F  F29  1  0.02414384  0.24865314  0.39069825  1
  F  F30  1  0.22450930  0.97585616  0.39069825  1
  F  F31  1  0.33333333  0.66666667  0.00000000  1
  F  F32  1  0.66666667  0.33333333  0.00000000  1
  F  F33  1  0.77736093  0.08616168  0.66231689  1
  F  F34  1  0.91383832  0.69119925  0.66231689  1
  F  F35  1  0.30880075  0.22263907  0.66231689  1
  F  F36  1  0.77736093  0.08616168  0.33768311  1
  F  F37  1  0.91383832  0.69119925  0.33768311  1
  F  F38  1  0.30880075  0.22263907  0.33768311  1
  F  F39  1  0.08616168  0.77736093  0.33768311  1
  F  F40  1  0.69119925  0.91383832  0.33768311  1
  F  F41  1  0.22263907  0.30880075  0.33768311  1
  F  F42  1  0.08616168  0.77736093  0.66231689  1
  F  F43  1  0.69119925  0.91383832  0.66231689  1
  F  F44  1  0.22263907  0.30880075  0.66231689  1
  F  F45  1  0.16670006  0.00000000  0.69201677  1
  F  F46  1  0.00000000  0.16670006  0.69201677  1
  F  F47  1  0.83329994  0.83329994  0.69201677  1
  F  F48  1  0.16670006  0.00000000  0.30798323  1
  F  F49  1  0.00000000  0.16670006  0.30798323  1
  F  F50  1  0.83329994  0.83329994  0.30798323  1
  F  F51  1  0.00000000  0.00000000  0.14213612  1
  F  F52  1  0.00000000  0.00000000  0.85786388  1
  F  F53  1  0.87981343  0.66577683  0.04415838  1
  F  F54  1  0.33422317  0.21403660  0.04415838  1
  F  F55  1  0.78596340  0.12018657  0.04415838  1
  F  F56  1  0.87981343  0.66577683  0.95584162  1
  F  F57  1  0.33422317  0.21403660  0.95584162  1
  F  F58  1  0.78596340  0.12018657  0.95584162  1
  F  F59  1  0.66577683  0.87981343  0.95584162  1
  F  F60  1  0.21403660  0.33422317  0.95584162  1
  F  F61  1  0.12018657  0.78596340  0.95584162  1
  F  F62  1  0.66577683  0.87981343  0.04415838  1
  F  F63  1  0.21403660  0.33422317  0.04415838  1
  F  F64  1  0.12018657  0.78596340  0.04415838  1
  F  F65  1  0.33333333  0.66666667  0.67559139  1
  F  F66  1  0.33333333  0.66666667  0.32440861  1
  F  F67  1  0.66666667  0.33333333  0.32440861  1
  F  F68  1  0.66666667  0.33333333  0.67559139  1
  F  F69  1  0.12191117  0.00000000  -0.00000000  1
  F  F70  1  0.00000000  0.12191117  -0.00000000  1
  F  F71  1  0.87808883  0.87808883  -0.00000000  1
  Li  Li72  1  0.56936966  0.42543237  0.28475980  1
  Li  Li73  1  0.57456763  0.14393729  0.28475980  1
  Li  Li74  1  0.85606271  0.43063034  0.28475980  1
  Li  Li75  1  0.56936966  0.42543237  0.71524020  1
  Li  Li76  1  0.57456763  0.14393729  0.71524020  1
  Li  Li77  1  0.85606271  0.43063034  0.71524020  1
  Li  Li78  1  0.42543237  0.56936966  0.71524020  1
  Li  Li79  1  0.14393729  0.57456763  0.71524020  1
  Li  Li80  1  0.43063034  0.85606271  0.71524020  1
  Li  Li81  1  0.42543237  0.56936966  0.28475980  1
  Li  Li82  1  0.14393729  0.57456763  0.28475980  1
  Li  Li83  1  0.43063034  0.85606271  0.28475980  1
  Li  Li84  1  0.53257240  0.82735222  0.00000000  1
  Li  Li85  1  0.17264778  0.70522019  0.00000000  1
  Li  Li86  1  0.29477981  0.46742760  0.00000000  1
  Li  Li87  1  0.82735222  0.53257240  0.00000000  1
  Li  Li88  1  0.70522019  0.17264778  0.00000000  1
  Li  Li89  1  0.46742760  0.29477981  0.00000000  1
