# generated using pymatgen
data_Li2Y2As2P3Se
_symmetry_space_group_name_H-M   'P 1'
_cell_length_a   5.37426076
_cell_length_b   5.51264437
_cell_length_c   7.27932942
_cell_angle_alpha   94.08132038
_cell_angle_beta   98.88826730
_cell_angle_gamma   106.39304189
_symmetry_Int_Tables_number   1
_chemical_formula_structural   Li2Y2As2P3Se
_chemical_formula_sum   'Li2 Y2 As2 P3 Se1'
_cell_volume   202.90451442
_cell_formula_units_Z   1
loop_
 _symmetry_equiv_pos_site_id
 _symmetry_equiv_pos_as_xyz
  1  'x, y, z'
loop_
 _atom_site_type_symbol
 _atom_site_label
 _atom_site_symmetry_multiplicity
 _atom_site_fract_x
 _atom_site_fract_y
 _atom_site_fract_z
 _atom_site_occupancy
  Se  Se0  1  0.12500000  0.00000000  0.25000000  1
  P  P1  1  0.00000000  0.00000000  0.00000000  1
  P  P2  1  0.37500000  0.00000000  0.25000000  1
  P  P3  1  0.25000000  0.25000000  0.25000000  1
  As  As4  1  0.00000000  0.25000000  0.12500000  1
  As  As5  1  0.41661167  0.50753726  0.22017691  1
  Li  Li6  1  0.84466636  0.28587952  0.91110843  1
  Li  Li7  1  0.38976431  0.10407518  0.85233471  1
  Y  Y8  1  0.75557496  0.31321532  0.42550556  1
  Y  Y9  1  0.90417110  0.33095190  0.29265010  1
