# generated using pymatgen
data_LiF
_symmetry_space_group_name_H-M   'P 1'
_cell_length_a   4.74322457
_cell_length_b   4.74322457
_cell_length_c   7.46254073
_cell_angle_alpha   90.00000000
_cell_angle_beta   90.00000000
_cell_angle_gamma   90.00000000
_symmetry_Int_Tables_number   1
_chemical_formula_structural   LiF
_chemical_formula_sum   'Li10 F10'
_cell_volume   167.89357946
_cell_formula_units_Z   10
loop_
 _symmetry_equiv_pos_site_id
 _symmetry_equiv_pos_as_xyz
  1  'x, y, z'
loop_
 _atom_site_type_symbol
 _atom_site_label
 _atom_site_symmetry_multiplicity
 _atom_site_fract_x
 _atom_site_fract_y
 _atom_site_fract_z
 _atom_site_occupancy
  F  F0  1  0.66403121  0.50000000  0.50000000  1
  F  F1  1  0.33596879  0.50000000  0.50000000  1
  F  F2  1  0.50000000  0.66403121  0.50000000  1
  F  F3  1  0.50000000  0.33596879  0.50000000  1
  F  F4  1  0.00000000  0.50000000  0.00000000  1
  F  F5  1  0.50000000  0.00000000  0.00000000  1
  F  F6  1  0.37871726  0.00000000  0.00000000  1
  F  F7  1  0.62128274  0.00000000  0.00000000  1
  F  F8  1  0.00000000  0.37871726  0.00000000  1
  F  F9  1  0.00000000  0.62128274  0.00000000  1
  Li  Li10  1  0.50000000  0.50000000  0.61151575  1
  Li  Li11  1  0.50000000  0.50000000  0.38848425  1
  Li  Li12  1  0.20147104  0.50000000  0.00000000  1
  Li  Li13  1  0.79852896  0.50000000  -0.00000000  1
  Li  Li14  1  0.50000000  0.20147104  0.00000000  1
  Li  Li15  1  0.50000000  0.79852896  -0.00000000  1
  Li  Li16  1  0.00000000  0.00000000  0.73917784  1
  Li  Li17  1  0.00000000  0.00000000  0.26082216  1
  Li  Li18  1  0.00000000  0.00000000  0.00000000  1
  Li  Li19  1  0.50000000  0.50000000  0.00000000  1
