# generated using pymatgen
data_Li4TeF2
_symmetry_space_group_name_H-M   'P 1'
_cell_length_a   17.86359538
_cell_length_b   17.86359538
_cell_length_c   9.88662392
_cell_angle_alpha   90.00000000
_cell_angle_beta   90.00000000
_cell_angle_gamma   90.00000000
_symmetry_Int_Tables_number   1
_chemical_formula_structural   Li4TeF2
_chemical_formula_sum   'Li96 Te24 F48'
_cell_volume   3154.90118005
_cell_formula_units_Z   24
loop_
 _symmetry_equiv_pos_site_id
 _symmetry_equiv_pos_as_xyz
  1  'x, y, z'
loop_
 _atom_site_type_symbol
 _atom_site_label
 _atom_site_symmetry_multiplicity
 _atom_site_fract_x
 _atom_site_fract_y
 _atom_site_fract_z
 _atom_site_occupancy
  F  F0  1  0.21287213  0.21287213  0.62179940  1
  F  F1  1  0.78712787  0.78712787  0.62179940  1
  F  F2  1  0.78712787  0.21287213  0.62179940  1
  F  F3  1  0.21287213  0.78712787  0.62179940  1
  F  F4  1  0.78712787  0.21287213  0.37820060  1
  F  F5  1  0.21287213  0.78712787  0.37820060  1
  F  F6  1  0.21287213  0.21287213  0.37820060  1
  F  F7  1  0.78712787  0.78712787  0.37820060  1
  F  F8  1  0.80132156  0.15430389  0.13712571  1
  F  F9  1  -0.80132156  -0.15430389  0.13712571  1
  F  F10  1  -0.15430389  0.80132156  0.13712571  1
  F  F11  1  0.15430389  -0.80132156  0.13712571  1
  F  F12  1  -0.80132156  0.15430389  -0.13712571  1
  F  F13  1  0.80132156  -0.15430389  -0.13712571  1
  F  F14  1  0.15430389  0.80132156  -0.13712571  1
  F  F15  1  -0.15430389  -0.80132156  -0.13712571  1
  F  F16  1  -0.80132156  -0.15430389  -0.13712571  1
  F  F17  1  0.80132156  0.15430389  -0.13712571  1
  F  F18  1  0.15430389  -0.80132156  -0.13712571  1
  F  F19  1  -0.15430389  0.80132156  -0.13712571  1
  F  F20  1  0.80132156  -0.15430389  0.13712571  1
  F  F21  1  -0.80132156  0.15430389  0.13712571  1
  F  F22  1  -0.15430389  -0.80132156  0.13712571  1
  F  F23  1  0.15430389  0.80132156  0.13712571  1
  F  F24  1  0.50000000  0.50000000  0.00000000  1
  F  F25  1  0.53385334  0.17925473  0.39623074  1
  F  F26  1  0.46614666  0.82074527  0.39623074  1
  F  F27  1  0.82074527  0.53385334  0.39623074  1
  F  F28  1  0.17925473  0.46614666  0.39623074  1
  F  F29  1  0.46614666  0.17925473  0.60376926  1
  F  F30  1  0.53385334  0.82074527  0.60376926  1
  F  F31  1  0.17925473  0.53385334  0.60376926  1
  F  F32  1  0.82074527  0.46614666  0.60376926  1
  F  F33  1  0.46614666  0.82074527  0.60376926  1
  F  F34  1  0.53385334  0.17925473  0.60376926  1
  F  F35  1  0.17925473  0.46614666  0.60376926  1
  F  F36  1  0.82074527  0.53385334  0.60376926  1
  F  F37  1  0.53385334  0.82074527  0.39623074  1
  F  F38  1  0.46614666  0.17925473  0.39623074  1
  F  F39  1  0.82074527  0.46614666  0.39623074  1
  F  F40  1  0.17925473  0.53385334  0.39623074  1
  F  F41  1  0.00000000  0.50000000  0.00000000  1
  F  F42  1  0.50000000  0.00000000  0.00000000  1
  F  F43  1  0.50000000  0.50000000  0.50000000  1
  F  F44  1  0.85516901  0.85516901  0.00000000  1
  F  F45  1  0.14483099  0.14483099  0.00000000  1
  F  F46  1  0.14483099  0.85516901  0.00000000  1
  F  F47  1  0.85516901  0.14483099  0.00000000  1
  Li  Li48  1  0.20324366  0.70193563  0.92037876  1
  Li  Li49  1  0.79675634  0.29806437  0.92037876  1
  Li  Li50  1  0.29806437  0.20324366  0.92037876  1
  Li  Li51  1  0.70193563  0.79675634  0.92037876  1
  Li  Li52  1  0.79675634  0.70193563  0.07962124  1
  Li  Li53  1  0.20324366  0.29806437  0.07962124  1
  Li  Li54  1  0.70193563  0.20324366  0.07962124  1
  Li  Li55  1  0.29806437  0.79675634  0.07962124  1
  Li  Li56  1  0.79675634  0.29806437  0.07962124  1
  Li  Li57  1  0.20324366  0.70193563  0.07962124  1
  Li  Li58  1  0.70193563  0.79675634  0.07962124  1
  Li  Li59  1  0.29806437  0.20324366  0.07962124  1
  Li  Li60  1  0.20324366  0.29806437  0.92037876  1
  Li  Li61  1  0.79675634  0.70193563  0.92037876  1
  Li  Li62  1  0.29806437  0.79675634  0.92037876  1
  Li  Li63  1  0.70193563  0.20324366  0.92037876  1
  Li  Li64  1  0.09954385  0.66701872  0.06780603  1
  Li  Li65  1  0.90045615  0.33298128  0.06780603  1
  Li  Li66  1  0.33298128  0.09954385  0.06780603  1
  Li  Li67  1  0.66701872  0.90045615  0.06780603  1
  Li  Li68  1  0.90045615  0.66701872  0.93219397  1
  Li  Li69  1  0.09954385  0.33298128  0.93219397  1
  Li  Li70  1  0.66701872  0.09954385  0.93219397  1
  Li  Li71  1  0.33298128  0.90045615  0.93219397  1
  Li  Li72  1  0.90045615  0.33298128  0.93219397  1
  Li  Li73  1  0.09954385  0.66701872  0.93219397  1
  Li  Li74  1  0.66701872  0.90045615  0.93219397  1
  Li  Li75  1  0.33298128  0.09954385  0.93219397  1
  Li  Li76  1  0.09954385  0.33298128  0.06780603  1
  Li  Li77  1  0.90045615  0.66701872  0.06780603  1
  Li  Li78  1  0.33298128  0.90045615  0.06780603  1
  Li  Li79  1  0.66701872  0.09954385  0.06780603  1
  Li  Li80  1  0.21932781  0.50000000  0.50000000  1
  Li  Li81  1  0.78067219  0.50000000  0.50000000  1
  Li  Li82  1  0.50000000  0.21932781  0.50000000  1
  Li  Li83  1  0.50000000  0.78067219  0.50000000  1
  Li  Li84  1  0.66392290  0.66392290  0.71846041  1
  Li  Li85  1  0.33607710  0.33607710  0.71846041  1
  Li  Li86  1  0.33607710  0.66392290  0.71846041  1
  Li  Li87  1  0.66392290  0.33607710  0.71846041  1
  Li  Li88  1  0.33607710  0.66392290  0.28153959  1
  Li  Li89  1  0.66392290  0.33607710  0.28153959  1
  Li  Li90  1  0.66392290  0.66392290  0.28153959  1
  Li  Li91  1  0.33607710  0.33607710  0.28153959  1
  Li  Li92  1  0.59075020  0.59075020  0.74949188  1
  Li  Li93  1  0.40924980  0.40924980  0.74949188  1
  Li  Li94  1  0.40924980  0.59075020  0.74949188  1
  Li  Li95  1  0.59075020  0.40924980  0.74949188  1
  Li  Li96  1  0.40924980  0.59075020  0.25050812  1
  Li  Li97  1  0.59075020  0.40924980  0.25050812  1
  Li  Li98  1  0.59075020  0.59075020  0.25050812  1
  Li  Li99  1  0.40924980  0.40924980  0.25050812  1
  Li  Li100  1  0.55082781  0.92118030  0.26713599  1
  Li  Li101  1  0.44917219  0.07881970  0.26713599  1
  Li  Li102  1  0.07881970  0.55082781  0.26713599  1
  Li  Li103  1  0.92118030  0.44917219  0.26713599  1
  Li  Li104  1  0.44917219  0.92118030  0.73286401  1
  Li  Li105  1  0.55082781  0.07881970  0.73286401  1
  Li  Li106  1  0.92118030  0.55082781  0.73286401  1
  Li  Li107  1  0.07881970  0.44917219  0.73286401  1
  Li  Li108  1  0.44917219  0.07881970  0.73286401  1
  Li  Li109  1  0.55082781  0.92118030  0.73286401  1
  Li  Li110  1  0.92118030  0.44917219  0.73286401  1
  Li  Li111  1  0.07881970  0.55082781  0.73286401  1
  Li  Li112  1  0.55082781  0.07881970  0.26713599  1
  Li  Li113  1  0.44917219  0.92118030  0.26713599  1
  Li  Li114  1  0.07881970  0.44917219  0.26713599  1
  Li  Li115  1  0.92118030  0.55082781  0.26713599  1
  Li  Li116  1  0.95255986  0.61379707  0.80529442  1
  Li  Li117  1  0.04744014  0.38620293  0.80529442  1
  Li  Li118  1  0.38620293  0.95255986  0.80529442  1
  Li  Li119  1  0.61379707  0.04744014  0.80529442  1
  Li  Li120  1  0.04744014  0.61379707  0.19470558  1
  Li  Li121  1  0.95255986  0.38620293  0.19470558  1
  Li  Li122  1  0.61379707  0.95255986  0.19470558  1
  Li  Li123  1  0.38620293  0.04744014  0.19470558  1
  Li  Li124  1  0.04744014  0.38620293  0.19470558  1
  Li  Li125  1  0.95255986  0.61379707  0.19470558  1
  Li  Li126  1  0.61379707  0.04744014  0.19470558  1
  Li  Li127  1  0.38620293  0.95255986  0.19470558  1
  Li  Li128  1  0.95255986  0.38620293  0.80529442  1
  Li  Li129  1  0.04744014  0.61379707  0.80529442  1
  Li  Li130  1  0.38620293  0.04744014  0.80529442  1
  Li  Li131  1  0.61379707  0.95255986  0.80529442  1
  Li  Li132  1  0.43018363  -0.00000000  0.72263775  1
  Li  Li133  1  0.56981637  0.00000000  0.72263775  1
  Li  Li134  1  0.00000000  0.43018363  0.72263775  1
  Li  Li135  1  0.00000000  0.56981637  0.72263775  1
  Li  Li136  1  0.56981637  0.00000000  0.27736225  1
  Li  Li137  1  0.43018363  -0.00000000  0.27736225  1
  Li  Li138  1  0.00000000  0.43018363  0.27736225  1
  Li  Li139  1  0.00000000  0.56981637  0.27736225  1
  Li  Li140  1  0.00000000  0.50000000  0.34516251  1
  Li  Li141  1  0.50000000  0.00000000  0.34516251  1
  Li  Li142  1  0.00000000  0.50000000  0.65483749  1
  Li  Li143  1  0.50000000  0.00000000  0.65483749  1
  Te  Te144  1  0.74592842  0.09964875  0.50000000  1
  Te  Te145  1  0.25407158  0.90035125  0.50000000  1
  Te  Te146  1  0.90035125  0.74592842  0.50000000  1
  Te  Te147  1  0.09964875  0.25407158  0.50000000  1
  Te  Te148  1  0.25407158  0.09964875  0.50000000  1
  Te  Te149  1  0.74592842  0.90035125  0.50000000  1
  Te  Te150  1  0.09964875  0.74592842  0.50000000  1
  Te  Te151  1  0.90035125  0.25407158  0.50000000  1
  Te  Te152  1  0.00000000  0.00000000  0.00000000  1
  Te  Te153  1  0.63149452  0.50000000  0.60428491  1
  Te  Te154  1  0.36850548  0.50000000  0.60428491  1
  Te  Te155  1  0.50000000  0.63149452  0.60428491  1
  Te  Te156  1  0.50000000  0.36850548  0.60428491  1
  Te  Te157  1  0.36850548  0.50000000  0.39571509  1
  Te  Te158  1  0.63149452  0.50000000  0.39571509  1
  Te  Te159  1  0.50000000  0.63149452  0.39571509  1
  Te  Te160  1  0.50000000  0.36850548  0.39571509  1
  Te  Te161  1  0.55792387  0.55792387  0.00000000  1
  Te  Te162  1  0.44207613  0.44207613  0.00000000  1
  Te  Te163  1  0.44207613  0.55792387  0.00000000  1
  Te  Te164  1  0.55792387  0.44207613  0.00000000  1
  Te  Te165  1  0.00000000  0.50000000  0.50000000  1
  Te  Te166  1  0.50000000  0.00000000  0.50000000  1
  Te  Te167  1  0.00000000  0.00000000  0.50000000  1
