# generated using pymatgen
data_LiF
_symmetry_space_group_name_H-M   'P 1'
_cell_length_a   7.53786145
_cell_length_b   18.26749878
_cell_length_c   5.29446871
_cell_angle_alpha   90.00000000
_cell_angle_beta   90.00000000
_cell_angle_gamma   90.00000000
_symmetry_Int_Tables_number   1
_chemical_formula_structural   LiF
_chemical_formula_sum   'Li24 F24'
_cell_volume   729.03708975
_cell_formula_units_Z   24
loop_
 _symmetry_equiv_pos_site_id
 _symmetry_equiv_pos_as_xyz
  1  'x, y, z'
loop_
 _atom_site_type_symbol
 _atom_site_label
 _atom_site_symmetry_multiplicity
 _atom_site_fract_x
 _atom_site_fract_y
 _atom_site_fract_z
 _atom_site_occupancy
  F  F0  1  0.21732605  0.27765701  0.81045690  1
  F  F1  1  -0.21732605  -0.27765701  0.81045690  1
  F  F2  1  0.28267395  0.77765701  -0.81045690  1
  F  F3  1  0.71732605  0.22234299  -0.81045690  1
  F  F4  1  -0.21732605  -0.27765701  -0.81045690  1
  F  F5  1  0.21732605  0.27765701  -0.81045690  1
  F  F6  1  0.71732605  0.22234299  0.81045690  1
  F  F7  1  0.28267395  0.77765701  0.81045690  1
  F  F8  1  0.82283691  0.59235576  0.50000000  1
  F  F9  1  0.17716309  0.40764424  0.50000000  1
  F  F10  1  0.67716309  0.09235576  0.50000000  1
  F  F11  1  0.32283691  0.90764424  0.50000000  1
  F  F12  1  0.49683047  0.88862120  0.22806735  1
  F  F13  1  0.50316953  0.11137880  0.22806735  1
  F  F14  1  0.00316953  0.38862120  0.77193265  1
  F  F15  1  0.99683047  0.61137880  0.77193265  1
  F  F16  1  0.50316953  0.11137880  0.77193265  1
  F  F17  1  0.49683047  0.88862120  0.77193265  1
  F  F18  1  0.99683047  0.61137880  0.22806735  1
  F  F19  1  0.00316953  0.38862120  0.22806735  1
  F  F20  1  0.00000000  0.00000000  0.50000000  1
  F  F21  1  0.50000000  0.50000000  0.50000000  1
  F  F22  1  0.00000000  0.00000000  0.00000000  1
  F  F23  1  0.50000000  0.50000000  0.00000000  1
  Li  Li24  1  0.00000000  0.50000000  0.00000000  1
  Li  Li25  1  0.50000000  0.00000000  0.00000000  1
  Li  Li26  1  0.82085578  0.89267360  0.79262076  1
  Li  Li27  1  0.17914422  0.10732640  0.79262076  1
  Li  Li28  1  0.67914422  0.39267360  0.20737924  1
  Li  Li29  1  0.32085578  0.60732640  0.20737924  1
  Li  Li30  1  0.17914422  0.10732640  0.20737924  1
  Li  Li31  1  0.82085578  0.89267360  0.20737924  1
  Li  Li32  1  0.32085578  0.60732640  0.79262076  1
  Li  Li33  1  0.67914422  0.39267360  0.79262076  1
  Li  Li34  1  0.84330400  0.21767094  0.00000000  1
  Li  Li35  1  0.15669600  0.78232906  -0.00000000  1
  Li  Li36  1  0.65669600  0.71767094  -0.00000000  1
  Li  Li37  1  0.34330400  0.28232906  0.00000000  1
  Li  Li38  1  0.64882320  0.76960399  0.50000000  1
  Li  Li39  1  0.35117680  0.23039601  0.50000000  1
  Li  Li40  1  0.85117680  0.26960399  0.50000000  1
  Li  Li41  1  0.14882320  0.73039601  0.50000000  1
  Li  Li42  1  0.67629064  0.86844749  -0.00000000  1
  Li  Li43  1  0.32370936  0.13155251  0.00000000  1
  Li  Li44  1  0.82370936  0.36844749  0.00000000  1
  Li  Li45  1  0.17629064  0.63155251  -0.00000000  1
  Li  Li46  1  0.00000000  0.50000000  0.50000000  1
  Li  Li47  1  0.50000000  0.00000000  0.50000000  1
