# generated using pymatgen
data_Li2Y2As4P2Se
_symmetry_space_group_name_H-M   'P 1'
_cell_length_a   5.13605387
_cell_length_b   5.23737510
_cell_length_c   6.88281925
_cell_angle_alpha   94.34381767
_cell_angle_beta   98.94133491
_cell_angle_gamma   106.63409196
_symmetry_Int_Tables_number   1
_chemical_formula_structural   Li2Y2As4P2Se
_chemical_formula_sum   'Li2 Y2 As4 P2 Se1'
_cell_volume   173.82085576
_cell_formula_units_Z   1
loop_
 _symmetry_equiv_pos_site_id
 _symmetry_equiv_pos_as_xyz
  1  'x, y, z'
loop_
 _atom_site_type_symbol
 _atom_site_label
 _atom_site_symmetry_multiplicity
 _atom_site_fract_x
 _atom_site_fract_y
 _atom_site_fract_z
 _atom_site_occupancy
  Se  Se0  1  0.00000000  0.00000000  0.00000000  1
  Y  Y1  1  0.50000000  0.50000000  0.50000000  1
  Y  Y2  1  0.25000000  0.25000000  0.25000000  1
  P  P3  1  0.75000000  0.25000000  0.00000000  1
  P  P4  1  0.25000000  0.75000000  0.50000000  1
  As  As5  1  0.20154644  0.92090469  0.14965665  1
  As  As6  1  0.54560485  0.06115768  0.58205597  1
  As  As7  1  0.09608281  0.15857556  0.81847436  1
  As  As8  1  0.44675790  0.12137050  0.81721044  1
  Li  Li9  1  0.69632840  0.35955103  0.35376831  1
  Li  Li10  1  0.07066447  0.45549717  0.86968266  1
