# generated using pymatgen
data_Li3Y2Mo2(As2P)2
_symmetry_space_group_name_H-M   'P 1'
_cell_length_a   5.84987001
_cell_length_b   5.80140781
_cell_length_c   7.00553295
_cell_angle_alpha   92.84799756
_cell_angle_beta   96.38081698
_cell_angle_gamma   101.65476707
_symmetry_Int_Tables_number   1
_chemical_formula_structural   Li3Y2Mo2(As2P)2
_chemical_formula_sum   'Li3 Y2 Mo2 As4 P2'
_cell_volume   230.76946195
_cell_formula_units_Z   1
loop_
 _symmetry_equiv_pos_site_id
 _symmetry_equiv_pos_as_xyz
  1  'x, y, z'
loop_
 _atom_site_type_symbol
 _atom_site_label
 _atom_site_symmetry_multiplicity
 _atom_site_fract_x
 _atom_site_fract_y
 _atom_site_fract_z
 _atom_site_occupancy
  P  P0  1  0.12500000  0.00000000  0.25000000  1
  P  P1  1  0.00000000  0.00000000  0.00000000  1
  Mo  Mo2  1  0.37500000  0.00000000  0.25000000  1
  Mo  Mo3  1  0.25000000  0.25000000  0.25000000  1
  As  As4  1  0.00000000  0.25000000  0.12500000  1
  As  As5  1  0.54475601  0.00773606  0.17915666  1
  As  As6  1  0.60988695  0.24158460  0.68739180  1
  As  As7  1  0.13287077  0.66267669  0.30619337  1
  Li  Li8  1  0.65877824  0.26044686  0.52109491  1
  Li  Li9  1  0.36461053  0.92671253  0.17761248  1
  Li  Li10  1  0.36475743  0.93820315  0.83473052  1
  Y  Y11  1  0.15429592  0.02322575  0.72506041  1
  Y  Y12  1  0.19634325  0.87623813  0.60806441  1
