# generated using pymatgen
data_Li3Y2P3Se2
_symmetry_space_group_name_H-M   'P 1'
_cell_length_a   4.73750803
_cell_length_b   4.96359201
_cell_length_c   6.99727545
_cell_angle_alpha   95.17813135
_cell_angle_beta   101.27689356
_cell_angle_gamma   110.79849561
_symmetry_Int_Tables_number   1
_chemical_formula_structural   Li3Y2P3Se2
_chemical_formula_sum   'Li3 Y2 P3 Se2'
_cell_volume   148.54330414
_cell_formula_units_Z   1
loop_
 _symmetry_equiv_pos_site_id
 _symmetry_equiv_pos_as_xyz
  1  'x, y, z'
loop_
 _atom_site_type_symbol
 _atom_site_label
 _atom_site_symmetry_multiplicity
 _atom_site_fract_x
 _atom_site_fract_y
 _atom_site_fract_z
 _atom_site_occupancy
  P  P0  1  0.00000000  0.00000000  0.00000000  1
  P  P1  1  0.50000000  0.50000000  0.50000000  1
  P  P2  1  0.25000000  0.25000000  0.25000000  1
  Se  Se3  1  0.75000000  0.25000000  0.00000000  1
  Se  Se4  1  0.25000000  0.75000000  0.50000000  1
  Li  Li5  1  0.77073063  0.31283415  0.06972716  1
  Li  Li6  1  0.96971761  0.21879027  0.87832102  1
  Li  Li7  1  0.76238419  0.91970699  0.73721144  1
  Y  Y8  1  0.34915304  0.07188767  0.60728466  1
  Y  Y9  1  0.40497172  0.00334898  0.88380825  1
