# generated using pymatgen
data_Li5AlCu(P2Se)2
_symmetry_space_group_name_H-M   'P 1'
_cell_length_a   6.56595125
_cell_length_b   6.94625474
_cell_length_c   7.57787232
_cell_angle_alpha   98.00614532
_cell_angle_beta   98.44273792
_cell_angle_gamma   97.22543171
_symmetry_Int_Tables_number   1
_chemical_formula_structural   Li5AlCu(P2Se)2
_chemical_formula_sum   'Li5 Al1 Cu1 P4 Se2'
_cell_volume   334.74649702
_cell_formula_units_Z   1
loop_
 _symmetry_equiv_pos_site_id
 _symmetry_equiv_pos_as_xyz
  1  'x, y, z'
loop_
 _atom_site_type_symbol
 _atom_site_label
 _atom_site_symmetry_multiplicity
 _atom_site_fract_x
 _atom_site_fract_y
 _atom_site_fract_z
 _atom_site_occupancy
  Al  Al0  1  0.00000000  0.00000000  0.00000000  1
  Se  Se1  1  0.50000000  0.50000000  0.50000000  1
  Se  Se2  1  0.25000000  0.25000000  0.25000000  1
  Cu  Cu3  1  0.75000000  0.25000000  0.00000000  1
  P  P4  1  0.25000000  0.75000000  0.50000000  1
  P  P5  1  0.82357470  0.42193320  0.66875482  1
  P  P6  1  0.40610657  0.49717259  0.02529995  1
  P  P7  1  0.63328080  0.67748597  0.29889579  1
  Li  Li8  1  0.72767158  0.48434590  0.90193216  1
  Li  Li9  1  0.81407825  0.59980670  0.97889178  1
  Li  Li10  1  0.40705615  0.61912667  0.59252500  1
  Li  Li11  1  0.20634439  0.96957995  0.56586614  1
  Li  Li12  1  0.09441412  0.63838509  0.00332912  1
