# generated using pymatgen
data_LiY(SbP)2
_symmetry_space_group_name_H-M   'P 1'
_cell_length_a   4.81862157
_cell_length_b   4.85171742
_cell_length_c   7.15524006
_cell_angle_alpha   95.54127363
_cell_angle_beta   101.83800004
_cell_angle_gamma   111.14062255
_symmetry_Int_Tables_number   1
_chemical_formula_structural   LiY(SbP)2
_chemical_formula_sum   'Li1 Y1 Sb2 P2'
_cell_volume   150.01410633
_cell_formula_units_Z   1
loop_
 _symmetry_equiv_pos_site_id
 _symmetry_equiv_pos_as_xyz
  1  'x, y, z'
loop_
 _atom_site_type_symbol
 _atom_site_label
 _atom_site_symmetry_multiplicity
 _atom_site_fract_x
 _atom_site_fract_y
 _atom_site_fract_z
 _atom_site_occupancy
  Y  Y0  1  0.00000000  0.00000000  0.00000000  1
  P  P1  1  0.33300000  0.66700000  0.25000000  1
  P  P2  1  0.66700000  0.33300000  0.50000000  1
  Li  Li3  1  0.00000000  0.00000000  0.75000000  1
  Sb  Sb4  1  0.67896846  0.05583312  0.14243792  1
  Sb  Sb5  1  0.79630681  0.38577683  0.50154784  1
