# generated using pymatgen
data_Li2Sb2AsP3Pb2
_symmetry_space_group_name_H-M   'P 1'
_cell_length_a   5.52656377
_cell_length_b   5.51922882
_cell_length_c   7.43944368
_cell_angle_alpha   95.20639156
_cell_angle_beta   100.46107983
_cell_angle_gamma   106.64832720
_symmetry_Int_Tables_number   1
_chemical_formula_structural   Li2Sb2AsP3Pb2
_chemical_formula_sum   'Li2 Sb2 As1 P3 Pb2'
_cell_volume   211.32611236
_cell_formula_units_Z   1
loop_
 _symmetry_equiv_pos_site_id
 _symmetry_equiv_pos_as_xyz
  1  'x, y, z'
loop_
 _atom_site_type_symbol
 _atom_site_label
 _atom_site_symmetry_multiplicity
 _atom_site_fract_x
 _atom_site_fract_y
 _atom_site_fract_z
 _atom_site_occupancy
  P  P0  1  0.12500000  0.00000000  0.25000000  1
  P  P1  1  0.00000000  0.00000000  0.00000000  1
  P  P2  1  0.37500000  0.00000000  0.25000000  1
  Pb  Pb3  1  0.25000000  0.25000000  0.25000000  1
  Pb  Pb4  1  0.00000000  0.25000000  0.12500000  1
  As  As5  1  0.83569639  0.52708349  0.55316773  1
  Li  Li6  1  0.56380755  0.09809922  0.24121325  1
  Li  Li7  1  0.45575318  0.75167538  0.32728211  1
  Sb  Sb8  1  0.05429760  0.10354647  0.40688809  1
  Sb  Sb9  1  0.05214919  0.60337390  0.07314292  1
