# generated using pymatgen
data_Li2YP3Se
_symmetry_space_group_name_H-M   'P 1'
_cell_length_a   5.34727854
_cell_length_b   5.37285984
_cell_length_c   7.14283213
_cell_angle_alpha   94.63851266
_cell_angle_beta   99.57085660
_cell_angle_gamma   107.79853340
_symmetry_Int_Tables_number   1
_chemical_formula_structural   Li2YP3Se
_chemical_formula_sum   'Li2 Y1 P3 Se1'
_cell_volume   190.76821674
_cell_formula_units_Z   1
loop_
 _symmetry_equiv_pos_site_id
 _symmetry_equiv_pos_as_xyz
  1  'x, y, z'
loop_
 _atom_site_type_symbol
 _atom_site_label
 _atom_site_symmetry_multiplicity
 _atom_site_fract_x
 _atom_site_fract_y
 _atom_site_fract_z
 _atom_site_occupancy
  Se  Se0  1  0.12500000  0.12500000  0.12500000  1
  P  P1  1  0.50000000  0.50000000  0.50000000  1
  P  P2  1  0.25000000  0.25000000  0.25000000  1
  P  P3  1  0.75000000  0.75000000  0.75000000  1
  Li  Li4  1  0.20631385  0.84134275  0.73744222  1
  Li  Li5  1  0.29533792  0.60054857  0.24216505  1
  Y  Y6  1  0.29814150  0.36827742  0.80734010  1
