# generated using pymatgen
data_Li2Y2Mo(As2P)2
_symmetry_space_group_name_H-M   'P 1'
_cell_length_a   5.08692960
_cell_length_b   5.24717857
_cell_length_c   6.87928453
_cell_angle_alpha   94.43202474
_cell_angle_beta   99.07513176
_cell_angle_gamma   106.89695517
_symmetry_Int_Tables_number   1
_chemical_formula_structural   Li2Y2Mo(As2P)2
_chemical_formula_sum   'Li2 Y2 Mo1 As4 P2'
_cell_volume   172.01635580
_cell_formula_units_Z   1
loop_
 _symmetry_equiv_pos_site_id
 _symmetry_equiv_pos_as_xyz
  1  'x, y, z'
loop_
 _atom_site_type_symbol
 _atom_site_label
 _atom_site_symmetry_multiplicity
 _atom_site_fract_x
 _atom_site_fract_y
 _atom_site_fract_z
 _atom_site_occupancy
  Y  Y0  1  0.00000000  0.00000000  0.00000000  1
  Y  Y1  1  0.50000000  0.50000000  0.50000000  1
  P  P2  1  0.50000000  0.50000000  0.00000000  1
  P  P3  1  0.50000000  0.00000000  0.50000000  1
  Mo  Mo4  1  0.00000000  0.50000000  0.50000000  1
  As  As5  1  0.85569854  0.21830458  0.16770619  1
  As  As6  1  0.33918410  0.71965402  0.02540031  1
  As  As7  1  0.38037753  0.46064788  0.67258433  1
  As  As8  1  0.48054915  0.77984118  0.94637392  1
  Li  Li9  1  0.10125468  0.30867583  0.32097093  1
  Li  Li10  1  0.10308042  0.60485752  0.24015620  1
