# generated using pymatgen
data_Li2Y2Cu3P2Se
_symmetry_space_group_name_H-M   'P 1'
_cell_length_a   4.43046119
_cell_length_b   4.72579477
_cell_length_c   6.21905585
_cell_angle_alpha   94.92735231
_cell_angle_beta   98.50035241
_cell_angle_gamma   106.24642838
_symmetry_Int_Tables_number   1
_chemical_formula_structural   Li2Y2Cu3P2Se
_chemical_formula_sum   'Li2 Y2 Cu3 P2 Se1'
_cell_volume   122.52298653
_cell_formula_units_Z   1
loop_
 _symmetry_equiv_pos_site_id
 _symmetry_equiv_pos_as_xyz
  1  'x, y, z'
loop_
 _atom_site_type_symbol
 _atom_site_label
 _atom_site_symmetry_multiplicity
 _atom_site_fract_x
 _atom_site_fract_y
 _atom_site_fract_z
 _atom_site_occupancy
  Se  Se0  1  0.00000000  0.00000000  0.00000000  1
  Cu  Cu1  1  0.50000000  0.50000000  0.50000000  1
  Cu  Cu2  1  0.50000000  0.50000000  0.00000000  1
  Cu  Cu3  1  0.50000000  0.00000000  0.50000000  1
  Y  Y4  1  0.00000000  0.50000000  0.50000000  1
  Y  Y5  1  0.51414854  0.08227276  0.26333941  1
  P  P6  1  0.43028368  0.79056674  0.56252154  1
  P  P7  1  0.01065072  0.34521331  0.00786046  1
  Li  Li8  1  0.89059541  0.26954134  0.40465170  1
  Li  Li9  1  0.29304720  0.86551238  0.51396000  1
