# generated using pymatgen
data_Li2Y2MoP3Se2
_symmetry_space_group_name_H-M   'P 1'
_cell_length_a   5.29337904
_cell_length_b   5.54823370
_cell_length_c   7.30970526
_cell_angle_alpha   94.28158825
_cell_angle_beta   99.32440908
_cell_angle_gamma   107.19743832
_symmetry_Int_Tables_number   1
_chemical_formula_structural   Li2Y2MoP3Se2
_chemical_formula_sum   'Li2 Y2 Mo1 P3 Se2'
_cell_volume   200.65257506
_cell_formula_units_Z   1
loop_
 _symmetry_equiv_pos_site_id
 _symmetry_equiv_pos_as_xyz
  1  'x, y, z'
loop_
 _atom_site_type_symbol
 _atom_site_label
 _atom_site_symmetry_multiplicity
 _atom_site_fract_x
 _atom_site_fract_y
 _atom_site_fract_z
 _atom_site_occupancy
  Se  Se0  1  0.00000000  0.00000000  0.00000000  1
  Se  Se1  1  0.50000000  0.50000000  0.50000000  1
  Y  Y2  1  0.50000000  0.50000000  0.00000000  1
  Y  Y3  1  0.50000000  0.00000000  0.50000000  1
  P  P4  1  0.00000000  0.50000000  0.50000000  1
  P  P5  1  0.13921652  0.87941421  0.59399397  1
  P  P6  1  0.10488533  0.03853766  0.97755796  1
  Mo  Mo7  1  0.88522721  0.95815040  0.66698267  1
  Li  Li8  1  0.47111055  0.97305403  0.02782467  1
  Li  Li9  1  0.79843262  0.92751305  0.07933790  1
