# generated using pymatgen
data_LiF
_symmetry_space_group_name_H-M   'P 1'
_cell_length_a   9.85781568
_cell_length_b   9.85781568
_cell_length_c   22.35146176
_cell_angle_alpha   90.00000000
_cell_angle_beta   90.00000000
_cell_angle_gamma   120.00000000
_symmetry_Int_Tables_number   1
_chemical_formula_structural   LiF
_chemical_formula_sum   'Li64 F64'
_cell_volume   1881.03964948
_cell_formula_units_Z   64
loop_
 _symmetry_equiv_pos_site_id
 _symmetry_equiv_pos_as_xyz
  1  'x, y, z'
loop_
 _atom_site_type_symbol
 _atom_site_label
 _atom_site_symmetry_multiplicity
 _atom_site_fract_x
 _atom_site_fract_y
 _atom_site_fract_z
 _atom_site_occupancy
  F  F0  1  0.42761074  0.46320269  0.78476094  1
  F  F1  1  -0.46320269  -0.03559195  0.78476094  1
  F  F2  1  0.03559195  -0.42761074  0.78476094  1
  F  F3  1  -0.46320269  -0.42761074  -0.78476094  1
  F  F4  1  0.03559195  0.46320269  -0.78476094  1
  F  F5  1  0.42761074  -0.03559195  -0.78476094  1
  F  F6  1  0.56142942  0.12063222  0.33665794  1
  F  F7  1  0.87936778  0.44079719  0.33665794  1
  F  F8  1  0.55920281  0.43857058  0.33665794  1
  F  F9  1  0.87936778  0.43857058  0.66334206  1
  F  F10  1  0.55920281  0.12063222  0.66334206  1
  F  F11  1  0.56142942  0.44079719  0.66334206  1
  F  F12  1  0.33333333  0.66666667  0.50000000  1
  F  F13  1  0.17813807  0.82186193  0.50000000  1
  F  F14  1  0.17813807  0.35627615  0.50000000  1
  F  F15  1  0.64372385  0.82186193  0.50000000  1
  F  F16  1  0.54707505  0.96606179  0.42229609  1
  F  F17  1  0.03393821  0.58101326  0.42229609  1
  F  F18  1  0.41898674  0.45292495  0.42229609  1
  F  F19  1  0.03393821  0.45292495  0.57770391  1
  F  F20  1  0.41898674  0.96606179  0.57770391  1
  F  F21  1  0.54707505  0.58101326  0.57770391  1
  F  F22  1  0.74751004  0.76862042  0.18296324  1
  F  F23  1  0.23137958  0.97888961  0.18296324  1
  F  F24  1  0.02111039  0.25248996  0.18296324  1
  F  F25  1  0.23137958  0.25248996  0.81703676  1
  F  F26  1  0.02111039  0.76862042  0.81703676  1
  F  F27  1  0.74751004  0.97888961  0.81703676  1
  F  F28  1  0.02338438  0.20778164  0.97477936  1
  F  F29  1  0.79221836  0.81560274  0.97477936  1
  F  F30  1  0.18439726  0.97661562  0.97477936  1
  F  F31  1  0.79221836  0.97661562  0.02522064  1
  F  F32  1  0.18439726  0.20778164  0.02522064  1
  F  F33  1  0.02338438  0.81560274  0.02522064  1
  F  F34  1  0.94917345  0.05082655  0.50000000  1
  F  F35  1  0.94917345  0.89834691  0.50000000  1
  F  F36  1  0.10165309  0.05082655  0.50000000  1
  F  F37  1  0.66666667  0.33333333  0.00000000  1
  F  F38  1  0.00000000  0.00000000  0.50000000  1
  F  F39  1  0.00000000  0.00000000  0.00000000  1
  F  F40  1  0.20941105  0.60586732  0.87778079  1
  F  F41  1  0.39413268  0.60354373  0.87778079  1
  F  F42  1  0.39645627  0.79058895  0.87778079  1
  F  F43  1  0.39413268  0.79058895  0.12221921  1
  F  F44  1  0.39645627  0.60586732  0.12221921  1
  F  F45  1  0.20941105  0.60354373  0.12221921  1
  F  F46  1  0.35052220  0.92538447  0.62738066  1
  F  F47  1  0.07461553  0.42513773  0.62738066  1
  F  F48  1  0.57486227  0.64947780  0.62738066  1
  F  F49  1  0.07461553  0.64947780  0.37261934  1
  F  F50  1  0.57486227  0.92538447  0.37261934  1
  F  F51  1  0.35052220  0.42513773  0.37261934  1
  F  F52  1  0.51301740  0.02844096  0.26156529  1
  F  F53  1  0.97155904  0.48457644  0.26156529  1
  F  F54  1  0.51542356  0.48698260  0.26156529  1
  F  F55  1  0.97155904  0.48698260  0.73843471  1
  F  F56  1  0.51542356  0.02844096  0.73843471  1
  F  F57  1  0.51301740  0.48457644  0.73843471  1
  F  F58  1  0.66666667  0.33333333  0.84901988  1
  F  F59  1  0.66666667  0.33333333  0.15098012  1
  F  F60  1  0.00000000  0.00000000  0.96528943  1
  F  F61  1  0.00000000  0.00000000  0.03471057  1
  F  F62  1  0.66666667  0.33333333  0.96439035  1
  F  F63  1  0.66666667  0.33333333  0.03560965  1
  Li  Li64  1  0.60934756  0.39065244  0.00000000  1
  Li  Li65  1  0.60934756  0.21869513  0.00000000  1
  Li  Li66  1  0.78130487  0.39065244  -0.00000000  1
  Li  Li67  1  0.72704481  0.03267168  0.06132640  1
  Li  Li68  1  0.96732832  0.69437313  0.06132640  1
  Li  Li69  1  0.30562687  0.27295519  0.06132640  1
  Li  Li70  1  0.96732832  0.27295519  0.93867360  1
  Li  Li71  1  0.30562687  0.03267168  0.93867360  1
  Li  Li72  1  0.72704481  0.69437313  0.93867360  1
  Li  Li73  1  0.66666667  0.33333333  0.10869038  1
  Li  Li74  1  0.66666667  0.33333333  0.89130962  1
  Li  Li75  1  0.06702742  0.27808537  0.79122521  1
  Li  Li76  1  0.72191463  0.78894205  0.79122521  1
  Li  Li77  1  0.21105795  0.93297258  0.79122521  1
  Li  Li78  1  0.72191463  0.93297258  0.20877479  1
  Li  Li79  1  0.21105795  0.27808537  0.20877479  1
  Li  Li80  1  0.06702742  0.78894205  0.20877479  1
  Li  Li81  1  0.41716789  0.32380670  0.68323723  1
  Li  Li82  1  0.67619330  0.09336119  0.68323723  1
  Li  Li83  1  0.90663881  0.58283211  0.68323723  1
  Li  Li84  1  0.67619330  0.58283211  0.31676277  1
  Li  Li85  1  0.90663881  0.32380670  0.31676277  1
  Li  Li86  1  0.41716789  0.09336119  0.31676277  1
  Li  Li87  1  0.17806167  0.02533877  0.87659150  1
  Li  Li88  1  0.97466123  0.15272289  0.87659150  1
  Li  Li89  1  0.84727711  0.82193833  0.87659150  1
  Li  Li90  1  0.97466123  0.82193833  0.12340850  1
  Li  Li91  1  0.84727711  0.02533877  0.12340850  1
  Li  Li92  1  0.17806167  0.15272289  0.12340850  1
  Li  Li93  1  0.45101400  0.34077172  0.35735490  1
  Li  Li94  1  0.65922828  0.11024228  0.35735490  1
  Li  Li95  1  0.88975772  0.54898600  0.35735490  1
  Li  Li96  1  0.65922828  0.54898600  0.64264510  1
  Li  Li97  1  0.88975772  0.34077172  0.64264510  1
  Li  Li98  1  0.45101400  0.11024228  0.64264510  1
  Li  Li99  1  0.26152663  0.73847337  0.00000000  1
  Li  Li100  1  0.26152663  0.52305325  0.00000000  1
  Li  Li101  1  0.47694675  0.73847337  0.00000000  1
  Li  Li102  1  0.44526214  0.81033244  0.30485250  1
  Li  Li103  1  0.18966756  0.63492970  0.30485250  1
  Li  Li104  1  0.36507030  0.55473786  0.30485250  1
  Li  Li105  1  0.18966756  0.55473786  0.69514750  1
  Li  Li106  1  0.36507030  0.81033244  0.69514750  1
  Li  Li107  1  0.44526214  0.63492970  0.69514750  1
  Li  Li108  1  0.96591809  0.06172807  0.67745978  1
  Li  Li109  1  0.93827193  0.90419002  0.67745978  1
  Li  Li110  1  0.09580998  0.03408191  0.67745978  1
  Li  Li111  1  0.93827193  0.03408191  0.32254022  1
  Li  Li112  1  0.09580998  0.06172807  0.32254022  1
  Li  Li113  1  0.96591809  0.90419002  0.32254022  1
  Li  Li114  1  0.81496352  0.44307735  0.17544831  1
  Li  Li115  1  0.55692265  0.37188618  0.17544831  1
  Li  Li116  1  0.62811382  0.18503648  0.17544831  1
  Li  Li117  1  0.55692265  0.18503648  0.82455169  1
  Li  Li118  1  0.62811382  0.44307735  0.82455169  1
  Li  Li119  1  0.81496352  0.37188618  0.82455169  1
  Li  Li120  1  0.66666667  0.33333333  0.46667397  1
  Li  Li121  1  0.66666667  0.33333333  0.53332603  1
  Li  Li122  1  0.37562895  0.94876527  0.34589222  1
  Li  Li123  1  0.05123473  0.42686368  0.34589222  1
  Li  Li124  1  0.57313632  0.62437105  0.34589222  1
  Li  Li125  1  0.05123473  0.62437105  0.65410778  1
  Li  Li126  1  0.57313632  0.94876527  0.65410778  1
  Li  Li127  1  0.37562895  0.42686368  0.65410778  1
