# generated using pymatgen
data_LiF
_symmetry_space_group_name_H-M   'P 1'
_cell_length_a   7.16885618
_cell_length_b   7.16885618
_cell_length_c   5.49292550
_cell_angle_alpha   90.00000000
_cell_angle_beta   90.00000000
_cell_angle_gamma   120.00000000
_symmetry_Int_Tables_number   1
_chemical_formula_structural   LiF
_chemical_formula_sum   'Li9 F9'
_cell_volume   244.47478669
_cell_formula_units_Z   9
loop_
 _symmetry_equiv_pos_site_id
 _symmetry_equiv_pos_as_xyz
  1  'x, y, z'
loop_
 _atom_site_type_symbol
 _atom_site_label
 _atom_site_symmetry_multiplicity
 _atom_site_fract_x
 _atom_site_fract_y
 _atom_site_fract_z
 _atom_site_occupancy
  F  F0  1  0.09224300  0.80003079  0.70392994  1
  F  F1  1  0.19996921  0.29221221  0.70392994  1
  F  F2  1  0.70778779  0.90775700  0.70392994  1
  F  F3  1  0.19996921  0.90775700  0.29607006  1
  F  F4  1  0.70778779  0.80003079  0.29607006  1
  F  F5  1  0.09224300  0.29221221  0.29607006  1
  F  F6  1  0.66666667  0.33333333  0.22898023  1
  F  F7  1  0.66666667  0.33333333  0.77101977  1
  F  F8  1  0.33333333  0.66666667  0.50000000  1
  Li  Li9  1  0.16813462  0.42689832  0.76307323  1
  Li  Li10  1  -0.42689832  -0.25876370  0.76307323  1
  Li  Li11  1  0.25876370  -0.16813462  0.76307323  1
  Li  Li12  1  -0.42689832  -0.16813462  -0.76307323  1
  Li  Li13  1  0.25876370  0.42689832  -0.76307323  1
  Li  Li14  1  0.16813462  -0.25876370  -0.76307323  1
  Li  Li15  1  0.00000000  0.00000000  0.00000000  1
  Li  Li16  1  0.33333333  0.66666667  0.77181373  1
  Li  Li17  1  0.33333333  0.66666667  0.22818627  1
