# generated using pymatgen
data_Li3Y2MoP2
_symmetry_space_group_name_H-M   'P 1'
_cell_length_a   6.22060847
_cell_length_b   6.35878988
_cell_length_c   7.40435850
_cell_angle_alpha   92.58948319
_cell_angle_beta   95.63935605
_cell_angle_gamma   100.40092481
_symmetry_Int_Tables_number   1
_chemical_formula_structural   Li3Y2MoP2
_chemical_formula_sum   'Li3 Y2 Mo1 P2'
_cell_volume   286.08377378
_cell_formula_units_Z   1
loop_
 _symmetry_equiv_pos_site_id
 _symmetry_equiv_pos_as_xyz
  1  'x, y, z'
loop_
 _atom_site_type_symbol
 _atom_site_label
 _atom_site_symmetry_multiplicity
 _atom_site_fract_x
 _atom_site_fract_y
 _atom_site_fract_z
 _atom_site_occupancy
  P  P0  1  0.00000000  0.00000000  0.00000000  1
  P  P1  1  0.50000000  0.50000000  0.50000000  1
  Mo  Mo2  1  0.25000000  0.25000000  0.25000000  1
  Li  Li3  1  0.75000000  0.25000000  0.00000000  1
  Li  Li4  1  0.25000000  0.75000000  0.50000000  1
  Li  Li5  1  0.94714545  0.25127220  0.36872098  1
  Y  Y6  1  0.02735265  0.78256894  0.14263267  1
  Y  Y7  1  0.82497957  0.19882407  0.08057495  1
