# generated using pymatgen
data_LiF
_symmetry_space_group_name_H-M   'P 1'
_cell_length_a   8.70619852
_cell_length_b   6.77683110
_cell_length_c   9.36530864
_cell_angle_alpha   90.00000000
_cell_angle_beta   90.00000000
_cell_angle_gamma   90.00000000
_symmetry_Int_Tables_number   1
_chemical_formula_structural   LiF
_chemical_formula_sum   'Li24 F24'
_cell_volume   552.55730174
_cell_formula_units_Z   24
loop_
 _symmetry_equiv_pos_site_id
 _symmetry_equiv_pos_as_xyz
  1  'x, y, z'
loop_
 _atom_site_type_symbol
 _atom_site_label
 _atom_site_symmetry_multiplicity
 _atom_site_fract_x
 _atom_site_fract_y
 _atom_site_fract_z
 _atom_site_occupancy
  F  F0  1  0.06827403  0.25000000  0.81275624  1
  F  F1  1  0.43172597  0.75000000  0.31275624  1
  F  F2  1  0.93172597  0.75000000  0.18724376  1
  F  F3  1  0.56827403  0.25000000  0.68724376  1
  F  F4  1  0.00000000  0.00000000  0.00000000  1
  F  F5  1  0.50000000  0.00000000  0.50000000  1
  F  F6  1  0.00000000  0.50000000  -0.00000000  1
  F  F7  1  0.50000000  0.50000000  0.50000000  1
  F  F8  1  0.20221202  0.92476598  0.53048961  1
  F  F9  1  0.29778798  -0.92476598  1.03048961  1
  F  F10  1  -0.20221202  1.42476598  -0.53048961  1
  F  F11  1  0.70221202  -0.42476598  -0.03048961  1
  F  F12  1  -0.20221202  -0.92476598  -0.53048961  1
  F  F13  1  0.70221202  0.92476598  -0.03048961  1
  F  F14  1  0.20221202  -0.42476598  0.53048961  1
  F  F15  1  0.29778798  1.42476598  1.03048961  1
  F  F16  1  0.42381315  0.25000000  0.23094763  1
  F  F17  1  0.07618685  0.75000000  0.73094763  1
  F  F18  1  0.57618685  0.75000000  0.76905237  1
  F  F19  1  0.92381315  0.25000000  0.26905237  1
  F  F20  1  0.00804244  0.25000000  0.86523674  1
  F  F21  1  0.49195756  0.75000000  0.36523674  1
  F  F22  1  0.99195756  0.75000000  0.13476326  1
  F  F23  1  0.50804244  0.25000000  0.63476326  1
  Li  Li24  1  0.53673346  0.25000000  0.84289661  1
  Li  Li25  1  0.96326654  0.75000000  0.34289661  1
  Li  Li26  1  0.46326654  0.75000000  0.15710339  1
  Li  Li27  1  0.03673346  0.25000000  0.65710339  1
  Li  Li28  1  0.70846827  0.25000000  0.14062411  1
  Li  Li29  1  0.79153173  0.75000000  0.64062411  1
  Li  Li30  1  0.29153173  0.75000000  0.85937589  1
  Li  Li31  1  0.20846827  0.25000000  0.35937589  1
  Li  Li32  1  0.71866233  0.25000000  0.41516881  1
  Li  Li33  1  0.78133767  0.75000000  0.91516881  1
  Li  Li34  1  0.28133767  0.75000000  0.58483119  1
  Li  Li35  1  0.21866233  0.25000000  0.08483119  1
  Li  Li36  1  0.56353706  0.00819006  0.58234875  1
  Li  Li37  1  0.93646294  0.99180994  0.08234875  1
  Li  Li38  1  0.43646294  0.50819006  0.41765125  1
  Li  Li39  1  0.06353706  0.49180994  0.91765125  1
  Li  Li40  1  0.43646294  0.99180994  0.41765125  1
  Li  Li41  1  0.06353706  0.00819006  0.91765125  1
  Li  Li42  1  0.56353706  0.49180994  0.58234875  1
  Li  Li43  1  0.93646294  0.50819006  0.08234875  1
  Li  Li44  1  0.26036517  0.25000000  0.93414315  1
  Li  Li45  1  0.23963483  0.75000000  0.43414315  1
  Li  Li46  1  0.73963483  0.75000000  0.06585685  1
  Li  Li47  1  0.76036517  0.25000000  0.56585685  1
