# generated using pymatgen
data_LiCaF3
_symmetry_space_group_name_H-M   'P 1'
_cell_length_a   7.47215242
_cell_length_b   7.47215242
_cell_length_c   21.06866649
_cell_angle_alpha   90.00000000
_cell_angle_beta   90.00000000
_cell_angle_gamma   90.00000000
_symmetry_Int_Tables_number   1
_chemical_formula_structural   LiCaF3
_chemical_formula_sum   'Li18 Ca18 F54'
_cell_volume   1176.32815792
_cell_formula_units_Z   18
loop_
 _symmetry_equiv_pos_site_id
 _symmetry_equiv_pos_as_xyz
  1  'x, y, z'
loop_
 _atom_site_type_symbol
 _atom_site_label
 _atom_site_symmetry_multiplicity
 _atom_site_fract_x
 _atom_site_fract_y
 _atom_site_fract_z
 _atom_site_occupancy
  Ca  Ca0  1  0.00000000  0.50000000  0.00000000  1
  Ca  Ca1  1  0.50000000  0.00000000  0.00000000  1
  Ca  Ca2  1  0.87733962  0.50000000  0.71083415  1
  Ca  Ca3  1  0.12266038  0.50000000  0.71083415  1
  Ca  Ca4  1  0.50000000  0.87733962  0.71083415  1
  Ca  Ca5  1  0.50000000  0.12266038  0.71083415  1
  Ca  Ca6  1  0.12266038  0.50000000  0.28916585  1
  Ca  Ca7  1  0.87733962  0.50000000  0.28916585  1
  Ca  Ca8  1  0.50000000  0.87733962  0.28916585  1
  Ca  Ca9  1  0.50000000  0.12266038  0.28916585  1
  Ca  Ca10  1  0.00000000  0.00000000  0.37549208  1
  Ca  Ca11  1  0.00000000  0.00000000  0.62450792  1
  Ca  Ca12  1  0.50000000  0.50000000  0.50000000  1
  Ca  Ca13  1  0.17727708  0.17727708  0.50000000  1
  Ca  Ca14  1  0.82272292  0.82272292  0.50000000  1
  Ca  Ca15  1  0.82272292  0.17727708  0.50000000  1
  Ca  Ca16  1  0.17727708  0.82272292  0.50000000  1
  Ca  Ca17  1  0.50000000  0.50000000  0.00000000  1
  F  F18  1  0.25784435  0.91538361  0.21006082  1
  F  F19  1  -0.25784435  -0.91538361  0.21006082  1
  F  F20  1  -0.91538361  0.25784435  0.21006082  1
  F  F21  1  0.91538361  -0.25784435  0.21006082  1
  F  F22  1  -0.25784435  0.91538361  -0.21006082  1
  F  F23  1  0.25784435  -0.91538361  -0.21006082  1
  F  F24  1  0.91538361  0.25784435  -0.21006082  1
  F  F25  1  -0.91538361  -0.25784435  -0.21006082  1
  F  F26  1  -0.25784435  -0.91538361  -0.21006082  1
  F  F27  1  0.25784435  0.91538361  -0.21006082  1
  F  F28  1  0.91538361  -0.25784435  -0.21006082  1
  F  F29  1  -0.91538361  0.25784435  -0.21006082  1
  F  F30  1  0.25784435  -0.91538361  0.21006082  1
  F  F31  1  -0.25784435  0.91538361  0.21006082  1
  F  F32  1  -0.91538361  -0.25784435  0.21006082  1
  F  F33  1  0.91538361  0.25784435  0.21006082  1
  F  F34  1  0.90733412  0.72378484  0.54987603  1
  F  F35  1  0.09266588  0.27621516  0.54987603  1
  F  F36  1  0.27621516  0.90733412  0.54987603  1
  F  F37  1  0.72378484  0.09266588  0.54987603  1
  F  F38  1  0.09266588  0.72378484  0.45012397  1
  F  F39  1  0.90733412  0.27621516  0.45012397  1
  F  F40  1  0.72378484  0.90733412  0.45012397  1
  F  F41  1  0.27621516  0.09266588  0.45012397  1
  F  F42  1  0.09266588  0.27621516  0.45012397  1
  F  F43  1  0.90733412  0.72378484  0.45012397  1
  F  F44  1  0.72378484  0.09266588  0.45012397  1
  F  F45  1  0.27621516  0.90733412  0.45012397  1
  F  F46  1  0.90733412  0.27621516  0.54987603  1
  F  F47  1  0.09266588  0.72378484  0.54987603  1
  F  F48  1  0.27621516  0.09266588  0.54987603  1
  F  F49  1  0.72378484  0.90733412  0.54987603  1
  F  F50  1  0.60676372  0.33360354  0.77549027  1
  F  F51  1  0.39323628  0.66639646  0.77549027  1
  F  F52  1  0.66639646  0.60676372  0.77549027  1
  F  F53  1  0.33360354  0.39323628  0.77549027  1
  F  F54  1  0.39323628  0.33360354  0.22450973  1
  F  F55  1  0.60676372  0.66639646  0.22450973  1
  F  F56  1  0.33360354  0.60676372  0.22450973  1
  F  F57  1  0.66639646  0.39323628  0.22450973  1
  F  F58  1  0.39323628  0.66639646  0.22450973  1
  F  F59  1  0.60676372  0.33360354  0.22450973  1
  F  F60  1  0.33360354  0.39323628  0.22450973  1
  F  F61  1  0.66639646  0.60676372  0.22450973  1
  F  F62  1  0.60676372  0.66639646  0.77549027  1
  F  F63  1  0.39323628  0.33360354  0.77549027  1
  F  F64  1  0.66639646  0.39323628  0.77549027  1
  F  F65  1  0.33360354  0.60676372  0.77549027  1
  F  F66  1  0.00000000  0.00000000  0.50000000  1
  F  F67  1  0.00000000  0.50000000  0.74645119  1
  F  F68  1  0.50000000  0.00000000  0.74645119  1
  F  F69  1  0.00000000  0.50000000  0.25354881  1
  F  F70  1  0.50000000  0.00000000  0.25354881  1
  F  F71  1  0.00000000  0.00000000  0.00000000  1
  Li  Li72  1  0.62450039  0.00000000  0.50000000  1
  Li  Li73  1  0.37549961  0.00000000  0.50000000  1
  Li  Li74  1  0.00000000  0.62450039  0.50000000  1
  Li  Li75  1  0.00000000  0.37549961  0.50000000  1
  Li  Li76  1  0.10279470  0.10279470  0.84154594  1
  Li  Li77  1  0.89720530  0.89720530  0.84154594  1
  Li  Li78  1  0.89720530  0.10279470  0.84154594  1
  Li  Li79  1  0.10279470  0.89720530  0.84154594  1
  Li  Li80  1  0.89720530  0.10279470  0.15845406  1
  Li  Li81  1  0.10279470  0.89720530  0.15845406  1
  Li  Li82  1  0.10279470  0.10279470  0.15845406  1
  Li  Li83  1  0.89720530  0.89720530  0.15845406  1
  Li  Li84  1  0.50000000  0.50000000  0.25908617  1
  Li  Li85  1  0.50000000  0.50000000  0.74091383  1
  Li  Li86  1  0.32057771  0.32057771  0.00000000  1
  Li  Li87  1  0.67942229  0.67942229  0.00000000  1
  Li  Li88  1  0.67942229  0.32057771  0.00000000  1
  Li  Li89  1  0.32057771  0.67942229  0.00000000  1
