# generated using pymatgen
data_LiYSbP
_symmetry_space_group_name_H-M   'P 1'
_cell_length_a   4.84466646
_cell_length_b   4.89242021
_cell_length_c   6.93164659
_cell_angle_alpha   94.97598641
_cell_angle_beta   100.83666392
_cell_angle_gamma   109.98655976
_symmetry_Int_Tables_number   1
_chemical_formula_structural   LiYSbP
_chemical_formula_sum   'Li2 Y2 Sb2 P2'
_cell_volume   149.60344934
_cell_formula_units_Z   2
loop_
 _symmetry_equiv_pos_site_id
 _symmetry_equiv_pos_as_xyz
  1  'x, y, z'
loop_
 _atom_site_type_symbol
 _atom_site_label
 _atom_site_symmetry_multiplicity
 _atom_site_fract_x
 _atom_site_fract_y
 _atom_site_fract_z
 _atom_site_occupancy
  P  P0  1  0.12500000  0.12500000  0.12500000  1
  P  P1  1  0.50000000  0.50000000  0.50000000  1
  Li  Li2  1  0.25000000  0.25000000  0.25000000  1
  Li  Li3  1  0.75000000  0.75000000  0.75000000  1
  Y  Y4  1  0.16812265  0.62051278  0.92492555  1
  Y  Y5  1  0.81059890  0.09639292  0.06054658  1
  Sb  Sb6  1  0.39238145  0.70352487  0.36534185  1
  Sb  Sb7  1  0.90226241  0.40999197  0.69478709  1
