# generated using pymatgen
data_LiF
_symmetry_space_group_name_H-M   'P 1'
_cell_length_a   7.30469719
_cell_length_b   9.82646380
_cell_length_c   9.89814723
_cell_angle_alpha   90.00000000
_cell_angle_beta   90.00000000
_cell_angle_gamma   90.00000000
_symmetry_Int_Tables_number   1
_chemical_formula_structural   LiF
_chemical_formula_sum   'Li28 F28'
_cell_volume   710.48250042
_cell_formula_units_Z   28
loop_
 _symmetry_equiv_pos_site_id
 _symmetry_equiv_pos_as_xyz
  1  'x, y, z'
loop_
 _atom_site_type_symbol
 _atom_site_label
 _atom_site_symmetry_multiplicity
 _atom_site_fract_x
 _atom_site_fract_y
 _atom_site_fract_z
 _atom_site_occupancy
  F  F0  1  0.62071566  0.09749319  0.80257695  1
  F  F1  1  0.87928434  0.90250681  0.30257695  1
  F  F2  1  0.37928434  0.59749319  0.19742305  1
  F  F3  1  0.12071566  0.40250681  0.69742305  1
  F  F4  1  0.37928434  0.90250681  0.19742305  1
  F  F5  1  0.12071566  0.09749319  0.69742305  1
  F  F6  1  0.62071566  0.40250681  0.80257695  1
  F  F7  1  0.87928434  0.59749319  0.30257695  1
  F  F8  1  0.00000000  0.00000000  0.50000000  1
  F  F9  1  0.50000000  0.00000000  -0.00000000  1
  F  F10  1  0.00000000  0.50000000  0.50000000  1
  F  F11  1  0.50000000  0.50000000  0.00000000  1
  F  F12  1  0.66823082  0.25000000  0.61980361  1
  F  F13  1  0.83176918  0.75000000  0.11980361  1
  F  F14  1  0.33176918  0.75000000  0.38019639  1
  F  F15  1  0.16823082  0.25000000  0.88019639  1
  F  F16  1  0.96720367  0.49933175  0.30351776  1
  F  F17  1  0.53279633  0.50066825  0.80351776  1
  F  F18  1  0.03279633  0.99933175  0.69648224  1
  F  F19  1  0.46720367  0.00066825  0.19648224  1
  F  F20  1  0.03279633  0.50066825  0.69648224  1
  F  F21  1  0.46720367  0.49933175  0.19648224  1
  F  F22  1  0.96720367  0.00066825  0.30351776  1
  F  F23  1  0.53279633  0.99933175  0.80351776  1
  F  F24  1  0.67431726  0.25000000  0.29022489  1
  F  F25  1  0.82568274  0.75000000  0.79022489  1
  F  F26  1  0.32568274  0.75000000  0.70977511  1
  F  F27  1  0.17431726  0.25000000  0.20977511  1
  Li  Li28  1  0.83145953  0.14290331  0.58517824  1
  Li  Li29  1  -0.33145953  -0.14290331  1.08517824  1
  Li  Li30  1  -0.83145953  0.64290331  -0.58517824  1
  Li  Li31  1  1.33145953  0.35709669  -0.08517824  1
  Li  Li32  1  -0.83145953  -0.14290331  -0.58517824  1
  Li  Li33  1  1.33145953  0.14290331  -0.08517824  1
  Li  Li34  1  0.83145953  0.35709669  0.58517824  1
  Li  Li35  1  -0.33145953  0.64290331  1.08517824  1
  Li  Li36  1  0.00000000  0.00000000  0.00000000  1
  Li  Li37  1  0.50000000  0.00000000  0.50000000  1
  Li  Li38  1  0.00000000  0.50000000  0.00000000  1
  Li  Li39  1  0.50000000  0.50000000  0.50000000  1
  Li  Li40  1  0.56930796  0.25000000  0.76651330  1
  Li  Li41  1  0.93069204  0.75000000  0.26651330  1
  Li  Li42  1  0.43069204  0.75000000  0.23348670  1
  Li  Li43  1  0.06930796  0.25000000  0.73348670  1
  Li  Li44  1  0.32488938  0.65285949  0.94174472  1
  Li  Li45  1  0.17511062  0.34714051  0.44174472  1
  Li  Li46  1  0.67511062  0.15285949  0.05825528  1
  Li  Li47  1  0.82488938  0.84714051  0.55825528  1
  Li  Li48  1  0.67511062  0.34714051  0.05825528  1
  Li  Li49  1  0.82488938  0.65285949  0.55825528  1
  Li  Li50  1  0.32488938  0.84714051  0.94174472  1
  Li  Li51  1  0.17511062  0.15285949  0.44174472  1
  Li  Li52  1  0.37721709  0.25000000  0.79824209  1
  Li  Li53  1  0.12278291  0.75000000  0.29824209  1
  Li  Li54  1  0.62278291  0.75000000  0.20175791  1
  Li  Li55  1  0.87721709  0.25000000  0.70175791  1
