# generated using pymatgen
data_Li2Y2MoP3Se2
_symmetry_space_group_name_H-M   'P 1'
_cell_length_a   5.27800236
_cell_length_b   5.54647969
_cell_length_c   7.27985962
_cell_angle_alpha   94.33987634
_cell_angle_beta   99.45134843
_cell_angle_gamma   107.43155842
_symmetry_Int_Tables_number   1
_chemical_formula_structural   Li2Y2MoP3Se2
_chemical_formula_sum   'Li2 Y2 Mo1 P3 Se2'
_cell_volume   198.79274123
_cell_formula_units_Z   1
loop_
 _symmetry_equiv_pos_site_id
 _symmetry_equiv_pos_as_xyz
  1  'x, y, z'
loop_
 _atom_site_type_symbol
 _atom_site_label
 _atom_site_symmetry_multiplicity
 _atom_site_fract_x
 _atom_site_fract_y
 _atom_site_fract_z
 _atom_site_occupancy
  Se  Se0  1  0.00000000  0.00000000  0.00000000  1
  Se  Se1  1  0.50000000  0.50000000  0.50000000  1
  P  P2  1  0.50000000  0.50000000  0.00000000  1
  P  P3  1  0.50000000  0.00000000  0.50000000  1
  P  P4  1  0.00000000  0.50000000  0.50000000  1
  Mo  Mo5  1  0.50604128  0.80109732  0.02394559  1
  Li  Li6  1  0.28587201  0.42288057  0.71205279  1
  Li  Li7  1  0.64064851  0.13021209  0.30490984  1
  Y  Y8  1  0.37830410  0.66596943  0.17904665  1
  Y  Y9  1  0.09888573  0.02476600  0.30323997  1
