# generated using pymatgen
data_Li3O2F
_symmetry_space_group_name_H-M   'P 1'
_cell_length_a   3.36160888
_cell_length_b   3.18846916
_cell_length_c   5.40711666
_cell_angle_alpha   102.30861480
_cell_angle_beta   105.54209404
_cell_angle_gamma   112.20034922
_symmetry_Int_Tables_number   1
_chemical_formula_structural   Li3O2F
_chemical_formula_sum   'Li3 O2 F1'
_cell_volume   48.37908580
_cell_formula_units_Z   1
loop_
 _symmetry_equiv_pos_site_id
 _symmetry_equiv_pos_as_xyz
  1  'x, y, z'
loop_
 _atom_site_type_symbol
 _atom_site_label
 _atom_site_symmetry_multiplicity
 _atom_site_fract_x
 _atom_site_fract_y
 _atom_site_fract_z
 _atom_site_occupancy
  F  F0  1  0.12500000  0.12500000  0.12500000  1
  Li  Li1  1  0.50000000  0.50000000  0.50000000  1
  Li  Li2  1  0.25000000  0.25000000  0.25000000  1
  Li  Li3  1  0.75000000  0.75000000  0.75000000  1
  O  O4  1  0.21567293  0.96796036  0.91472554  1
  O  O5  1  0.95657230  0.03691323  0.05278747  1
