# generated using pymatgen
data_LiF
_symmetry_space_group_name_H-M   'P 1'
_cell_length_a   15.78181539
_cell_length_b   15.78181539
_cell_length_c   3.74227167
_cell_angle_alpha   90.00000000
_cell_angle_beta   90.00000000
_cell_angle_gamma   90.00000000
_symmetry_Int_Tables_number   1
_chemical_formula_structural   LiF
_chemical_formula_sum   'Li43 F43'
_cell_volume   932.07150322
_cell_formula_units_Z   43
loop_
 _symmetry_equiv_pos_site_id
 _symmetry_equiv_pos_as_xyz
  1  'x, y, z'
loop_
 _atom_site_type_symbol
 _atom_site_label
 _atom_site_symmetry_multiplicity
 _atom_site_fract_x
 _atom_site_fract_y
 _atom_site_fract_z
 _atom_site_occupancy
  F  F0  1  0.45795352  0.22781286  0.50000000  1
  F  F1  1  0.54204648  0.77218714  0.50000000  1
  F  F2  1  0.77218714  0.45795352  0.50000000  1
  F  F3  1  0.22781286  0.54204648  0.50000000  1
  F  F4  1  0.54204648  0.22781286  0.50000000  1
  F  F5  1  0.45795352  0.77218714  0.50000000  1
  F  F6  1  0.22781286  0.45795352  0.50000000  1
  F  F7  1  0.77218714  0.54204648  0.50000000  1
  F  F8  1  0.59012215  0.27376470  0.66924728  1
  F  F9  1  -0.59012215  -0.27376470  0.66924728  1
  F  F10  1  -0.27376470  0.59012215  0.66924728  1
  F  F11  1  0.27376470  -0.59012215  0.66924728  1
  F  F12  1  -0.59012215  0.27376470  -0.66924728  1
  F  F13  1  0.59012215  -0.27376470  -0.66924728  1
  F  F14  1  0.27376470  0.59012215  -0.66924728  1
  F  F15  1  -0.27376470  -0.59012215  -0.66924728  1
  F  F16  1  -0.59012215  -0.27376470  -0.66924728  1
  F  F17  1  0.59012215  0.27376470  -0.66924728  1
  F  F18  1  0.27376470  -0.59012215  -0.66924728  1
  F  F19  1  -0.27376470  0.59012215  -0.66924728  1
  F  F20  1  0.59012215  -0.27376470  0.66924728  1
  F  F21  1  -0.59012215  0.27376470  0.66924728  1
  F  F22  1  -0.27376470  -0.59012215  0.66924728  1
  F  F23  1  0.27376470  0.59012215  0.66924728  1
  F  F24  1  0.77580452  0.00000000  0.50000000  1
  F  F25  1  0.22419548  0.00000000  0.50000000  1
  F  F26  1  0.00000000  0.77580452  0.50000000  1
  F  F27  1  0.00000000  0.22419548  0.50000000  1
  F  F28  1  0.39692064  0.39692064  0.50000000  1
  F  F29  1  0.60307936  0.60307936  0.50000000  1
  F  F30  1  0.60307936  0.39692064  0.50000000  1
  F  F31  1  0.39692064  0.60307936  0.50000000  1
  F  F32  1  0.29924895  0.29924895  -0.00000000  1
  F  F33  1  0.70075105  0.70075105  -0.00000000  1
  F  F34  1  0.70075105  0.29924895  -0.00000000  1
  F  F35  1  0.29924895  0.70075105  0.00000000  1
  F  F36  1  0.57783694  0.57783694  -0.00000000  1
  F  F37  1  0.42216306  0.42216306  -0.00000000  1
  F  F38  1  0.42216306  0.57783694  0.00000000  1
  F  F39  1  0.57783694  0.42216306  -0.00000000  1
  F  F40  1  0.00000000  0.50000000  0.50000000  1
  F  F41  1  0.50000000  0.00000000  0.50000000  1
  F  F42  1  0.00000000  0.00000000  0.50000000  1
  Li  Li43  1  0.56465066  0.17067158  0.50000000  1
  Li  Li44  1  0.43534934  0.82932842  0.50000000  1
  Li  Li45  1  0.82932842  0.56465066  0.50000000  1
  Li  Li46  1  0.17067158  0.43534934  0.50000000  1
  Li  Li47  1  0.43534934  0.17067158  0.50000000  1
  Li  Li48  1  0.56465066  0.82932842  0.50000000  1
  Li  Li49  1  0.17067158  0.56465066  0.50000000  1
  Li  Li50  1  0.82932842  0.43534934  0.50000000  1
  Li  Li51  1  0.82843846  0.72985135  -0.00000000  1
  Li  Li52  1  0.17156154  0.27014865  0.00000000  1
  Li  Li53  1  0.27014865  0.82843846  -0.00000000  1
  Li  Li54  1  0.72985135  0.17156154  -0.00000000  1
  Li  Li55  1  0.17156154  0.72985135  0.00000000  1
  Li  Li56  1  0.82843846  0.27014865  -0.00000000  1
  Li  Li57  1  0.72985135  0.82843846  -0.00000000  1
  Li  Li58  1  0.27014865  0.17156154  0.00000000  1
  Li  Li59  1  0.50000000  0.50000000  0.50000000  1
  Li  Li60  1  0.67582534  0.10502937  -0.00000000  1
  Li  Li61  1  0.32417466  0.89497063  0.00000000  1
  Li  Li62  1  0.89497063  0.67582534  -0.00000000  1
  Li  Li63  1  0.10502937  0.32417466  0.00000000  1
  Li  Li64  1  0.32417466  0.10502937  0.00000000  1
  Li  Li65  1  0.67582534  0.89497063  -0.00000000  1
  Li  Li66  1  0.10502937  0.67582534  -0.00000000  1
  Li  Li67  1  0.89497063  0.32417466  0.00000000  1
  Li  Li68  1  0.14305027  0.14305027  0.50000000  1
  Li  Li69  1  0.85694973  0.85694973  0.50000000  1
  Li  Li70  1  0.85694973  0.14305027  0.50000000  1
  Li  Li71  1  0.14305027  0.85694973  0.50000000  1
  Li  Li72  1  0.54373295  0.19223380  -0.00000000  1
  Li  Li73  1  0.45626705  0.80776620  0.00000000  1
  Li  Li74  1  0.80776620  0.54373295  0.00000000  1
  Li  Li75  1  0.19223380  0.45626705  0.00000000  1
  Li  Li76  1  0.45626705  0.19223380  0.00000000  1
  Li  Li77  1  0.54373295  0.80776620  0.00000000  1
  Li  Li78  1  0.19223380  0.54373295  -0.00000000  1
  Li  Li79  1  0.80776620  0.45626705  -0.00000000  1
  Li  Li80  1  0.32582724  -0.00000000  -0.00000000  1
  Li  Li81  1  0.67417276  0.00000000  0.00000000  1
  Li  Li82  1  0.00000000  0.32582724  -0.00000000  1
  Li  Li83  1  0.00000000  0.67417276  0.00000000  1
  Li  Li84  1  0.00000000  0.00000000  0.00000000  1
  Li  Li85  1  0.50000000  0.50000000  0.00000000  1
