# generated using pymatgen
data_Li2CaSeF2
_symmetry_space_group_name_H-M   'P 1'
_cell_length_a   4.01344101
_cell_length_b   8.56835826
_cell_length_c   11.24470432
_cell_angle_alpha   90.00000000
_cell_angle_beta   90.00000000
_cell_angle_gamma   90.00000000
_symmetry_Int_Tables_number   1
_chemical_formula_structural   Li2CaSeF2
_chemical_formula_sum   'Li8 Ca4 Se4 F8'
_cell_volume   386.68964377
_cell_formula_units_Z   4
loop_
 _symmetry_equiv_pos_site_id
 _symmetry_equiv_pos_as_xyz
  1  'x, y, z'
loop_
 _atom_site_type_symbol
 _atom_site_label
 _atom_site_symmetry_multiplicity
 _atom_site_fract_x
 _atom_site_fract_y
 _atom_site_fract_z
 _atom_site_occupancy
  Ca  Ca0  1  0.68856933  0.25000000  0.39821952  1
  Ca  Ca1  1  0.81143067  0.75000000  0.89821952  1
  Ca  Ca2  1  0.31143067  0.75000000  0.60178048  1
  Ca  Ca3  1  0.18856933  0.25000000  0.10178048  1
  F  F4  1  0.00000000  0.00000000  0.50000000  1
  F  F5  1  0.50000000  0.00000000  0.00000000  1
  F  F6  1  0.00000000  0.50000000  0.50000000  1
  F  F7  1  0.50000000  0.50000000  -0.00000000  1
  F  F8  1  0.82262070  0.25000000  0.15918014  1
  F  F9  1  0.67737930  0.75000000  0.65918014  1
  F  F10  1  0.17737930  0.75000000  0.84081986  1
  F  F11  1  0.32262070  0.25000000  0.34081986  1
  Li  Li12  1  0.59766770  0.64908474  0.34313262  1
  Li  Li13  1  -0.09766770  -0.64908474  0.84313262  1
  Li  Li14  1  -0.59766770  1.14908474  -0.34313262  1
  Li  Li15  1  1.09766770  -0.14908474  0.15686738  1
  Li  Li16  1  -0.59766770  -0.64908474  -0.34313262  1
  Li  Li17  1  1.09766770  0.64908474  0.15686738  1
  Li  Li18  1  0.59766770  -0.14908474  0.34313262  1
  Li  Li19  1  -0.09766770  1.14908474  0.84313262  1
  Se  Se20  1  0.00000000  0.00000000  0.00000000  1
  Se  Se21  1  0.50000000  0.00000000  0.50000000  1
  Se  Se22  1  0.00000000  0.50000000  0.00000000  1
  Se  Se23  1  0.50000000  0.50000000  0.50000000  1
