# generated using pymatgen
data_LiY2P3Se2
_symmetry_space_group_name_H-M   'P 1'
_cell_length_a   4.60796517
_cell_length_b   4.87343699
_cell_length_c   7.03617702
_cell_angle_alpha   95.46609086
_cell_angle_beta   101.90400952
_cell_angle_gamma   111.95511453
_symmetry_Int_Tables_number   1
_chemical_formula_structural   LiY2P3Se2
_chemical_formula_sum   'Li1 Y2 P3 Se2'
_cell_volume   140.78742679
_cell_formula_units_Z   1
loop_
 _symmetry_equiv_pos_site_id
 _symmetry_equiv_pos_as_xyz
  1  'x, y, z'
loop_
 _atom_site_type_symbol
 _atom_site_label
 _atom_site_symmetry_multiplicity
 _atom_site_fract_x
 _atom_site_fract_y
 _atom_site_fract_z
 _atom_site_occupancy
  Se  Se0  1  0.12500000  0.12500000  0.12500000  1
  Se  Se1  1  0.50000000  0.50000000  0.50000000  1
  Y  Y2  1  0.25000000  0.25000000  0.25000000  1
  Y  Y3  1  0.75000000  0.75000000  0.75000000  1
  P  P4  1  0.90091807  0.31744403  0.64634877  1
  P  P5  1  0.99120785  0.71970710  0.76687773  1
  P  P6  1  0.79568112  0.76281959  0.39120545  1
  Li  Li7  1  0.39558059  0.17171987  0.45426659  1
