# generated using pymatgen
data_LiF
_symmetry_space_group_name_H-M   'P 1'
_cell_length_a   5.89209176
_cell_length_b   8.63116683
_cell_length_c   7.74855483
_cell_angle_alpha   90.00000000
_cell_angle_beta   90.00000000
_cell_angle_gamma   90.00000000
_symmetry_Int_Tables_number   1
_chemical_formula_structural   LiF
_chemical_formula_sum   'Li24 F24'
_cell_volume   394.05761419
_cell_formula_units_Z   24
loop_
 _symmetry_equiv_pos_site_id
 _symmetry_equiv_pos_as_xyz
  1  'x, y, z'
loop_
 _atom_site_type_symbol
 _atom_site_label
 _atom_site_symmetry_multiplicity
 _atom_site_fract_x
 _atom_site_fract_y
 _atom_site_fract_z
 _atom_site_occupancy
  F  F0  1  0.54701878  0.39137327  0.82985574  1
  F  F1  1  0.95298122  0.60862673  0.32985574  1
  F  F2  1  0.45298122  0.89137327  0.17014426  1
  F  F3  1  0.04701878  0.10862673  0.67014426  1
  F  F4  1  0.45298122  0.60862673  0.17014426  1
  F  F5  1  0.04701878  0.39137327  0.67014426  1
  F  F6  1  0.54701878  0.10862673  0.82985574  1
  F  F7  1  0.95298122  0.89137327  0.32985574  1
  F  F8  1  0.24267923  0.13313115  0.56817507  1
  F  F9  1  0.25732077  0.86686885  0.06817507  1
  F  F10  1  0.75732077  0.63313115  0.43182493  1
  F  F11  1  0.74267923  0.36686885  0.93182493  1
  F  F12  1  0.75732077  0.86686885  0.43182493  1
  F  F13  1  0.74267923  0.13313115  0.93182493  1
  F  F14  1  0.24267923  0.36686885  0.56817507  1
  F  F15  1  0.25732077  0.63313115  0.06817507  1
  F  F16  1  0.89762273  0.25000000  0.96651890  1
  F  F17  1  0.60237727  0.75000000  0.46651890  1
  F  F18  1  0.10237727  0.75000000  0.03348110  1
  F  F19  1  0.39762273  0.25000000  0.53348110  1
  F  F20  1  0.29875855  0.25000000  0.17485072  1
  F  F21  1  0.20124145  0.75000000  0.67485072  1
  F  F22  1  0.70124145  0.75000000  0.82514928  1
  F  F23  1  0.79875855  0.25000000  0.32514928  1
  Li  Li24  1  0.00000000  0.00000000  0.50000000  1
  Li  Li25  1  0.50000000  0.00000000  0.00000000  1
  Li  Li26  1  0.00000000  0.50000000  0.50000000  1
  Li  Li27  1  0.50000000  0.50000000  0.00000000  1
  Li  Li28  1  0.00000000  0.00000000  0.00000000  1
  Li  Li29  1  0.50000000  0.00000000  0.50000000  1
  Li  Li30  1  0.00000000  0.50000000  0.00000000  1
  Li  Li31  1  0.50000000  0.50000000  0.50000000  1
  Li  Li32  1  0.07504449  0.25000000  0.44486503  1
  Li  Li33  1  0.42495551  0.75000000  0.94486503  1
  Li  Li34  1  0.92495551  0.75000000  0.55513497  1
  Li  Li35  1  0.57504449  0.25000000  0.05513497  1
  Li  Li36  1  0.88711334  0.25000000  0.64068207  1
  Li  Li37  1  0.61288666  0.75000000  0.14068207  1
  Li  Li38  1  0.11288666  0.75000000  0.35931793  1
  Li  Li39  1  0.38711334  0.25000000  0.85931793  1
  Li  Li40  1  0.20287210  0.11723568  0.93345287  1
  Li  Li41  1  0.29712790  -0.11723568  1.43345287  1
  Li  Li42  1  -0.20287210  0.61723568  -0.93345287  1
  Li  Li43  1  0.70287210  0.38276432  -0.43345287  1
  Li  Li44  1  -0.20287210  -0.11723568  -0.93345287  1
  Li  Li45  1  0.70287210  0.11723568  -0.43345287  1
  Li  Li46  1  0.20287210  0.38276432  0.93345287  1
  Li  Li47  1  0.29712790  0.61723568  1.43345287  1
