# generated using pymatgen
data_LiF
_symmetry_space_group_name_H-M   'P 1'
_cell_length_a   18.90969825
_cell_length_b   18.90969825
_cell_length_c   5.19141857
_cell_angle_alpha   90.00000000
_cell_angle_beta   90.00000000
_cell_angle_gamma   90.00000000
_symmetry_Int_Tables_number   1
_chemical_formula_structural   LiF
_chemical_formula_sum   'Li64 F64'
_cell_volume   1856.33025889
_cell_formula_units_Z   64
loop_
 _symmetry_equiv_pos_site_id
 _symmetry_equiv_pos_as_xyz
  1  'x, y, z'
loop_
 _atom_site_type_symbol
 _atom_site_label
 _atom_site_symmetry_multiplicity
 _atom_site_fract_x
 _atom_site_fract_y
 _atom_site_fract_z
 _atom_site_occupancy
  F  F0  1  0.50572033  0.60171962  0.51154322  1
  F  F1  1  -0.00572033  -0.60171962  1.01154322  1
  F  F2  1  -0.35171962  1.25572033  0.76154322  1
  F  F3  1  0.85171962  -0.25572033  1.26154322  1
  F  F4  1  -0.00572033  0.60171962  -0.51154322  1
  F  F5  1  0.50572033  -0.60171962  -0.01154322  1
  F  F6  1  0.85171962  1.25572033  0.23845678  1
  F  F7  1  -0.35171962  -0.25572033  -0.26154322  1
  F  F8  1  -0.50572033  -0.60171962  -0.51154322  1
  F  F9  1  1.00572033  0.60171962  -0.01154322  1
  F  F10  1  1.35171962  -0.25572033  0.23845678  1
  F  F11  1  0.14828038  1.25572033  -0.26154322  1
  F  F12  1  1.00572033  -0.60171962  0.51154322  1
  F  F13  1  -0.50572033  0.60171962  1.01154322  1
  F  F14  1  0.14828038  -0.25572033  0.76154322  1
  F  F15  1  1.35171962  1.25572033  1.26154322  1
  F  F16  1  1.00572033  1.10171962  1.01154322  1
  F  F17  1  0.49427967  -0.10171962  1.51154322  1
  F  F18  1  0.14828038  1.75572033  1.26154322  1
  F  F19  1  1.35171962  0.24427967  1.76154322  1
  F  F20  1  0.49427967  1.10171962  -0.01154322  1
  F  F21  1  1.00572033  -0.10171962  0.48845678  1
  F  F22  1  1.35171962  1.75572033  0.73845678  1
  F  F23  1  0.14828038  0.24427967  0.23845678  1
  F  F24  1  -0.00572033  -0.10171962  -0.01154322  1
  F  F25  1  1.50572033  1.10171962  0.48845678  1
  F  F26  1  1.85171962  0.24427967  0.73845678  1
  F  F27  1  0.64828038  1.75572033  0.23845678  1
  F  F28  1  1.50572033  -0.10171962  1.01154322  1
  F  F29  1  -0.00572033  1.10171962  1.51154322  1
  F  F30  1  0.64828038  0.24427967  1.26154322  1
  F  F31  1  1.85171962  1.75572033  1.76154322  1
  F  F32  1  0.60141085  0.74788073  0.94676104  1
  F  F33  1  0.89858915  0.25211927  0.44676104  1
  F  F34  1  0.50211927  0.35141085  0.19676104  1
  F  F35  1  0.99788073  0.64858915  0.69676104  1
  F  F36  1  0.89858915  0.74788073  0.05323896  1
  F  F37  1  0.60141085  0.25211927  0.55323896  1
  F  F38  1  0.99788073  0.35141085  0.80323896  1
  F  F39  1  0.50211927  0.64858915  0.30323896  1
  F  F40  1  0.39858915  0.25211927  0.05323896  1
  F  F41  1  0.10141085  0.74788073  0.55323896  1
  F  F42  1  0.49788073  0.64858915  0.80323896  1
  F  F43  1  0.00211927  0.35141085  0.30323896  1
  F  F44  1  0.10141085  0.25211927  0.94676104  1
  F  F45  1  0.39858915  0.74788073  0.44676104  1
  F  F46  1  0.00211927  0.64858915  0.19676104  1
  F  F47  1  0.49788073  0.35141085  0.69676104  1
  F  F48  1  0.10141085  0.24788073  0.44676104  1
  F  F49  1  0.39858915  0.75211927  0.94676104  1
  F  F50  1  0.00211927  0.85141085  0.69676104  1
  F  F51  1  0.49788073  0.14858915  0.19676104  1
  F  F52  1  0.39858915  0.24788073  0.55323896  1
  F  F53  1  0.10141085  0.75211927  0.05323896  1
  F  F54  1  0.49788073  0.85141085  0.30323896  1
  F  F55  1  0.00211927  0.14858915  0.80323896  1
  F  F56  1  0.89858915  0.75211927  0.55323896  1
  F  F57  1  0.60141085  0.24788073  0.05323896  1
  F  F58  1  0.99788073  0.14858915  0.30323896  1
  F  F59  1  0.50211927  0.85141085  0.80323896  1
  F  F60  1  0.60141085  0.75211927  0.44676104  1
  F  F61  1  0.89858915  0.24788073  0.94676104  1
  F  F62  1  0.50211927  0.14858915  0.69676104  1
  F  F63  1  0.99788073  0.85141085  0.19676104  1
  Li  Li64  1  0.41764574  0.66764574  0.12500000  1
  Li  Li65  1  0.08235426  0.33235426  0.62500000  1
  Li  Li66  1  0.58235426  0.16764574  0.37500000  1
  Li  Li67  1  0.91764574  0.83235426  0.87500000  1
  Li  Li68  1  0.58235426  0.33235426  0.87500000  1
  Li  Li69  1  0.91764574  0.66764574  0.37500000  1
  Li  Li70  1  0.41764574  0.83235426  0.62500000  1
  Li  Li71  1  0.08235426  0.16764574  0.12500000  1
  Li  Li72  1  0.91764574  0.16764574  0.62500000  1
  Li  Li73  1  0.58235426  0.83235426  0.12500000  1
  Li  Li74  1  0.08235426  0.66764574  0.87500000  1
  Li  Li75  1  0.41764574  0.33235426  0.37500000  1
  Li  Li76  1  0.08235426  0.83235426  0.37500000  1
  Li  Li77  1  0.41764574  0.16764574  0.87500000  1
  Li  Li78  1  0.91764574  0.33235426  0.12500000  1
  Li  Li79  1  0.58235426  0.66764574  0.62500000  1
  Li  Li80  1  0.83403597  0.00000000  0.25000000  1
  Li  Li81  1  0.66596403  0.00000000  0.75000000  1
  Li  Li82  1  0.25000000  0.58403597  0.50000000  1
  Li  Li83  1  0.25000000  0.41596403  0.00000000  1
  Li  Li84  1  0.16596403  -0.00000000  0.75000000  1
  Li  Li85  1  0.33403597  -0.00000000  0.25000000  1
  Li  Li86  1  0.75000000  0.41596403  0.50000000  1
  Li  Li87  1  0.75000000  0.58403597  0.00000000  1
  Li  Li88  1  0.33403597  0.50000000  0.75000000  1
  Li  Li89  1  0.16596403  0.50000000  0.25000000  1
  Li  Li90  1  0.75000000  0.08403597  -0.00000000  1
  Li  Li91  1  0.75000000  0.91596403  0.50000000  1
  Li  Li92  1  0.66596403  0.50000000  0.25000000  1
  Li  Li93  1  0.83403597  0.50000000  0.75000000  1
  Li  Li94  1  0.25000000  0.91596403  -0.00000000  1
  Li  Li95  1  0.25000000  0.08403597  0.50000000  1
  Li  Li96  1  0.00000000  0.00000000  0.00000000  1
  Li  Li97  1  0.50000000  0.00000000  0.50000000  1
  Li  Li98  1  0.25000000  0.75000000  0.25000000  1
  Li  Li99  1  0.25000000  0.25000000  0.75000000  1
  Li  Li100  1  0.50000000  0.00000000  0.00000000  1
  Li  Li101  1  0.00000000  0.00000000  0.50000000  1
  Li  Li102  1  0.25000000  0.75000000  0.75000000  1
  Li  Li103  1  0.25000000  0.25000000  0.25000000  1
  Li  Li104  1  0.50000000  0.50000000  0.50000000  1
  Li  Li105  1  0.00000000  0.50000000  0.00000000  1
  Li  Li106  1  0.75000000  0.25000000  0.75000000  1
  Li  Li107  1  0.75000000  0.75000000  0.25000000  1
  Li  Li108  1  0.00000000  0.50000000  0.50000000  1
  Li  Li109  1  0.50000000  0.50000000  0.00000000  1
  Li  Li110  1  0.75000000  0.25000000  0.25000000  1
  Li  Li111  1  0.75000000  0.75000000  0.75000000  1
  Li  Li112  1  0.00000000  0.25000000  0.12500000  1
  Li  Li113  1  0.00000000  0.75000000  0.37500000  1
  Li  Li114  1  0.00000000  0.75000000  0.87500000  1
  Li  Li115  1  0.00000000  0.25000000  0.62500000  1
  Li  Li116  1  0.50000000  0.75000000  0.62500000  1
  Li  Li117  1  0.50000000  0.25000000  0.87500000  1
  Li  Li118  1  0.50000000  0.25000000  0.37500000  1
  Li  Li119  1  0.50000000  0.75000000  0.12500000  1
  Li  Li120  1  0.00000000  0.25000000  0.37500000  1
  Li  Li121  1  0.00000000  0.75000000  0.62500000  1
  Li  Li122  1  0.50000000  0.25000000  0.62500000  1
  Li  Li123  1  0.50000000  0.75000000  0.37500000  1
  Li  Li124  1  0.50000000  0.75000000  0.87500000  1
  Li  Li125  1  0.50000000  0.25000000  0.12500000  1
  Li  Li126  1  0.00000000  0.75000000  0.12500000  1
  Li  Li127  1  0.00000000  0.25000000  0.87500000  1
