# generated using pymatgen
data_LiF
_symmetry_space_group_name_H-M   'P 1'
_cell_length_a   10.18421397
_cell_length_b   10.18421397
_cell_length_c   10.90896371
_cell_angle_alpha   90.00000000
_cell_angle_beta   90.00000000
_cell_angle_gamma   120.00000000
_symmetry_Int_Tables_number   1
_chemical_formula_structural   LiF
_chemical_formula_sum   'Li31 F31'
_cell_volume   979.87157395
_cell_formula_units_Z   31
loop_
 _symmetry_equiv_pos_site_id
 _symmetry_equiv_pos_as_xyz
  1  'x, y, z'
loop_
 _atom_site_type_symbol
 _atom_site_label
 _atom_site_symmetry_multiplicity
 _atom_site_fract_x
 _atom_site_fract_y
 _atom_site_fract_z
 _atom_site_occupancy
  F  F0  1  0.33333333  0.66666667  0.50000000  1
  F  F1  1  0.66666667  0.33333333  0.00000000  1
  F  F2  1  0.89228758  0.38892570  0.06394247  1
  F  F3  1  0.61107430  0.50336187  0.06394247  1
  F  F4  1  0.49663813  0.10771242  0.06394247  1
  F  F5  1  0.61107430  0.10771242  0.93605753  1
  F  F6  1  0.49663813  0.38892570  0.93605753  1
  F  F7  1  0.89228758  0.50336187  0.93605753  1
  F  F8  1  0.18896207  0.11350231  0.81984772  1
  F  F9  1  0.88649769  0.07545976  0.81984772  1
  F  F10  1  0.92454024  0.81103793  0.81984772  1
  F  F11  1  0.88649769  0.81103793  0.18015228  1
  F  F12  1  0.92454024  0.11350231  0.18015228  1
  F  F13  1  0.18896207  0.07545976  0.18015228  1
  F  F14  1  0.75007687  0.75675234  0.20905053  1
  F  F15  1  0.24324766  0.99332452  0.20905053  1
  F  F16  1  0.00667548  0.24992313  0.20905053  1
  F  F17  1  0.24324766  0.24992313  0.79094947  1
  F  F18  1  0.00667548  0.75675234  0.79094947  1
  F  F19  1  0.75007687  0.99332452  0.79094947  1
  F  F20  1  0.72493361  0.02293489  0.62683135  1
  F  F21  1  0.97706511  0.70199872  0.62683135  1
  F  F22  1  0.29800128  0.27506639  0.62683135  1
  F  F23  1  0.97706511  0.27506639  0.37316865  1
  F  F24  1  0.29800128  0.02293489  0.37316865  1
  F  F25  1  0.72493361  0.70199872  0.37316865  1
  F  F26  1  0.38337240  0.61662760  0.50000000  1
  F  F27  1  0.38337240  0.76674480  0.50000000  1
  F  F28  1  0.23325520  0.61662760  0.50000000  1
  F  F29  1  0.33333333  0.66666667  0.09440372  1
  F  F30  1  0.33333333  0.66666667  0.90559628  1
  Li  Li31  1  0.51640979  0.48359021  0.50000000  1
  Li  Li32  1  0.51640979  0.03281958  0.50000000  1
  Li  Li33  1  0.96718042  0.48359021  0.50000000  1
  Li  Li34  1  0.00000000  0.00000000  0.50000000  1
  Li  Li35  1  0.61654578  0.43332327  0.56393983  1
  Li  Li36  1  -0.43332327  0.18322251  0.56393983  1
  Li  Li37  1  -0.18322251  -0.61654578  0.56393983  1
  Li  Li38  1  -0.43332327  -0.61654578  -0.56393983  1
  Li  Li39  1  -0.18322251  0.43332327  -0.56393983  1
  Li  Li40  1  0.61654578  0.18322251  -0.56393983  1
  Li  Li41  1  0.61684918  0.83319597  0.39469170  1
  Li  Li42  1  0.16680403  0.78365321  0.39469170  1
  Li  Li43  1  0.21634679  0.38315082  0.39469170  1
  Li  Li44  1  0.16680403  0.38315082  0.60530830  1
  Li  Li45  1  0.21634679  0.83319597  0.60530830  1
  Li  Li46  1  0.61684918  0.78365321  0.60530830  1
  Li  Li47  1  0.33333333  0.66666667  0.00000000  1
  Li  Li48  1  0.69262734  0.26493486  0.81103732  1
  Li  Li49  1  0.73506514  0.42769248  0.81103732  1
  Li  Li50  1  0.57230752  0.30737266  0.81103732  1
  Li  Li51  1  0.73506514  0.30737266  0.18896268  1
  Li  Li52  1  0.57230752  0.26493486  0.18896268  1
  Li  Li53  1  0.69262734  0.42769248  0.18896268  1
  Li  Li54  1  0.49441260  0.52326441  0.37800251  1
  Li  Li55  1  0.47673559  0.97114819  0.37800251  1
  Li  Li56  1  0.02885181  0.50558740  0.37800251  1
  Li  Li57  1  0.47673559  0.50558740  0.62199749  1
  Li  Li58  1  0.02885181  0.52326441  0.62199749  1
  Li  Li59  1  0.49441260  0.97114819  0.62199749  1
  Li  Li60  1  0.66666667  0.33333333  0.50000000  1
  Li  Li61  1  0.00000000  0.00000000  0.00000000  1
