# generated using pymatgen
data_Li2YAs4P3
_symmetry_space_group_name_H-M   'P 1'
_cell_length_a   4.98277225
_cell_length_b   5.00656740
_cell_length_c   7.11062664
_cell_angle_alpha   95.34036922
_cell_angle_beta   101.63021391
_cell_angle_gamma   111.45014065
_symmetry_Int_Tables_number   1
_chemical_formula_structural   Li2YAs4P3
_chemical_formula_sum   'Li2 Y1 As4 P3'
_cell_volume   158.98010733
_cell_formula_units_Z   1
loop_
 _symmetry_equiv_pos_site_id
 _symmetry_equiv_pos_as_xyz
  1  'x, y, z'
loop_
 _atom_site_type_symbol
 _atom_site_label
 _atom_site_symmetry_multiplicity
 _atom_site_fract_x
 _atom_site_fract_y
 _atom_site_fract_z
 _atom_site_occupancy
  P  P0  1  0.00000000  0.00000000  0.00000000  1
  P  P1  1  0.33300000  0.66700000  0.25000000  1
  P  P2  1  0.66700000  0.33300000  0.50000000  1
  As  As3  1  0.00000000  0.00000000  0.75000000  1
  As  As4  1  0.20399909  0.20630699  0.63831129  1
  As  As5  1  0.09803624  0.90353754  0.97025671  1
  As  As6  1  0.70551230  0.24388181  0.62738853  1
  Li  Li7  1  0.05237636  0.55928836  0.68572188  1
  Li  Li8  1  0.52681096  0.74764725  0.46037483  1
  Y  Y9  1  0.33337425  0.91354176  0.10055568  1
