# generated using pymatgen
data_LiF
_symmetry_space_group_name_H-M   'P 1'
_cell_length_a   7.98308826
_cell_length_b   7.98308826
_cell_length_c   3.55825737
_cell_angle_alpha   90.00000000
_cell_angle_beta   90.00000000
_cell_angle_gamma   120.00000000
_symmetry_Int_Tables_number   1
_chemical_formula_structural   LiF
_chemical_formula_sum   'Li8 F8'
_cell_volume   196.38569550
_cell_formula_units_Z   8
loop_
 _symmetry_equiv_pos_site_id
 _symmetry_equiv_pos_as_xyz
  1  'x, y, z'
loop_
 _atom_site_type_symbol
 _atom_site_label
 _atom_site_symmetry_multiplicity
 _atom_site_fract_x
 _atom_site_fract_y
 _atom_site_fract_z
 _atom_site_occupancy
  F  F0  1  0.76254113  0.46434564  0.04973795  1
  F  F1  1  0.53565436  0.29819549  0.04973795  1
  F  F2  1  0.70180451  0.23745887  0.04973795  1
  F  F3  1  0.53565436  0.23745887  0.95026205  1
  F  F4  1  0.70180451  0.46434564  0.95026205  1
  F  F5  1  0.76254113  0.29819549  0.95026205  1
  F  F6  1  0.33333333  0.66666667  0.50000000  1
  F  F7  1  0.33333333  0.66666667  0.00000000  1
  Li  Li8  1  0.99982991  0.14777999  0.41146052  1
  Li  Li9  1  -0.14777999  0.85204992  0.41146052  1
  Li  Li10  1  -0.85204992  -0.99982991  0.41146052  1
  Li  Li11  1  -0.14777999  -0.99982991  -0.41146052  1
  Li  Li12  1  -0.85204992  0.14777999  -0.41146052  1
  Li  Li13  1  0.99982991  0.85204992  -0.41146052  1
  Li  Li14  1  0.66666667  0.33333333  0.50000000  1
  Li  Li15  1  0.66666667  0.33333333  0.00000000  1
