# generated using pymatgen
data_Li2Y2P3Se2
_symmetry_space_group_name_H-M   'P 1'
_cell_length_a   5.71834762
_cell_length_b   6.00154587
_cell_length_c   7.39938787
_cell_angle_alpha   93.44560957
_cell_angle_beta   97.50382131
_cell_angle_gamma   103.83964420
_symmetry_Int_Tables_number   1
_chemical_formula_structural   Li2Y2P3Se2
_chemical_formula_sum   'Li2 Y2 P3 Se2'
_cell_volume   243.35250121
_cell_formula_units_Z   1
loop_
 _symmetry_equiv_pos_site_id
 _symmetry_equiv_pos_as_xyz
  1  'x, y, z'
loop_
 _atom_site_type_symbol
 _atom_site_label
 _atom_site_symmetry_multiplicity
 _atom_site_fract_x
 _atom_site_fract_y
 _atom_site_fract_z
 _atom_site_occupancy
  Se  Se0  1  0.00000000  0.00000000  0.00000000  1
  Se  Se1  1  0.50000000  0.50000000  0.50000000  1
  P  P2  1  0.50000000  0.50000000  0.00000000  1
  P  P3  1  0.50000000  0.00000000  0.50000000  1
  P  P4  1  0.00000000  0.50000000  0.50000000  1
  Li  Li5  1  0.92091855  0.46176967  0.26386462  1
  Li  Li6  1  0.78215745  0.31839977  0.42888321  1
  Y  Y7  1  0.06901553  0.80736746  0.92028972  1
  Y  Y8  1  0.83914064  0.73939732  0.66585761  1
