# generated using pymatgen
data_Li2TiP4Se2F3
_symmetry_space_group_name_H-M   'P 1'
_cell_length_a   6.99510649
_cell_length_b   6.77385012
_cell_length_c   7.90091758
_cell_angle_alpha   91.95004921
_cell_angle_beta   94.24680176
_cell_angle_gamma   97.83257263
_symmetry_Int_Tables_number   1
_chemical_formula_structural   Li2TiP4Se2F3
_chemical_formula_sum   'Li2 Ti1 P4 Se2 F3'
_cell_volume   369.49546586
_cell_formula_units_Z   1
loop_
 _symmetry_equiv_pos_site_id
 _symmetry_equiv_pos_as_xyz
  1  'x, y, z'
loop_
 _atom_site_type_symbol
 _atom_site_label
 _atom_site_symmetry_multiplicity
 _atom_site_fract_x
 _atom_site_fract_y
 _atom_site_fract_z
 _atom_site_occupancy
  Se  Se0  1  0.12500000  0.00000000  0.25000000  1
  Se  Se1  1  0.00000000  0.00000000  0.00000000  1
  F  F2  1  0.37500000  0.00000000  0.25000000  1
  F  F3  1  0.25000000  0.25000000  0.25000000  1
  F  F4  1  0.00000000  0.25000000  0.12500000  1
  P  P5  1  0.30672988  0.02614897  0.70934538  1
  P  P6  1  0.17359981  0.43934776  0.94421830  1
  P  P7  1  0.46779503  0.76155322  0.99871991  1
  P  P8  1  0.23510746  0.01455190  0.78920927  1
  Ti  Ti9  1  0.84194338  0.86451342  0.29626596  1
  Li  Li10  1  0.11047564  0.84716768  0.19753926  1
  Li  Li11  1  0.14463149  0.90221937  0.25742741  1
