# generated using pymatgen
data_LiF
_symmetry_space_group_name_H-M   'P 1'
_cell_length_a   5.27710913
_cell_length_b   6.17876787
_cell_length_c   6.14325466
_cell_angle_alpha   90.00000000
_cell_angle_beta   90.00000000
_cell_angle_gamma   90.00000000
_symmetry_Int_Tables_number   1
_chemical_formula_structural   LiF
_chemical_formula_sum   'Li10 F10'
_cell_volume   200.30716011
_cell_formula_units_Z   10
loop_
 _symmetry_equiv_pos_site_id
 _symmetry_equiv_pos_as_xyz
  1  'x, y, z'
loop_
 _atom_site_type_symbol
 _atom_site_label
 _atom_site_symmetry_multiplicity
 _atom_site_fract_x
 _atom_site_fract_y
 _atom_site_fract_z
 _atom_site_occupancy
  F  F0  1  0.03537971  0.05747992  0.50000000  1
  F  F1  1  0.96462029  0.94252008  0.50000000  1
  F  F2  1  0.46462029  0.55747992  0.50000000  1
  F  F3  1  0.53537971  0.44252008  0.50000000  1
  F  F4  1  0.00000000  0.50000000  0.50000000  1
  F  F5  1  0.50000000  -0.00000000  0.50000000  1
  F  F6  1  0.00000000  0.50000000  0.05788669  1
  F  F7  1  0.50000000  -0.00000000  0.94211331  1
  F  F8  1  0.00000000  0.50000000  0.94211331  1
  F  F9  1  0.50000000  -0.00000000  0.05788669  1
  Li  Li10  1  0.00000000  0.00000000  0.00000000  1
  Li  Li11  1  0.50000000  0.50000000  0.00000000  1
  Li  Li12  1  0.22866868  0.89896422  0.75655471  1
  Li  Li13  1  -0.22866868  -0.89896422  0.75655471  1
  Li  Li14  1  0.27133132  1.39896422  -0.75655471  1
  Li  Li15  1  0.72866868  -0.39896422  -0.75655471  1
  Li  Li16  1  -0.22866868  -0.89896422  -0.75655471  1
  Li  Li17  1  0.22866868  0.89896422  -0.75655471  1
  Li  Li18  1  0.72866868  -0.39896422  0.75655471  1
  Li  Li19  1  0.27133132  1.39896422  0.75655471  1
