# generated using pymatgen
data_LiF
_symmetry_space_group_name_H-M   'P 1'
_cell_length_a   9.41502397
_cell_length_b   9.41502397
_cell_length_c   3.83817983
_cell_angle_alpha   90.00000000
_cell_angle_beta   90.00000000
_cell_angle_gamma   90.00000000
_symmetry_Int_Tables_number   1
_chemical_formula_structural   LiF
_chemical_formula_sum   'Li16 F16'
_cell_volume   340.22653258
_cell_formula_units_Z   16
loop_
 _symmetry_equiv_pos_site_id
 _symmetry_equiv_pos_as_xyz
  1  'x, y, z'
loop_
 _atom_site_type_symbol
 _atom_site_label
 _atom_site_symmetry_multiplicity
 _atom_site_fract_x
 _atom_site_fract_y
 _atom_site_fract_z
 _atom_site_occupancy
  F  F0  1  0.83538650  0.95791301  0.50000000  1
  F  F1  1  0.16461350  0.04208699  0.50000000  1
  F  F2  1  0.04208699  0.83538650  0.50000000  1
  F  F3  1  0.95791301  0.16461350  0.50000000  1
  F  F4  1  0.16461350  0.95791301  0.50000000  1
  F  F5  1  0.83538650  0.04208699  0.50000000  1
  F  F6  1  0.95791301  0.83538650  0.50000000  1
  F  F7  1  0.04208699  0.16461350  0.50000000  1
  F  F8  1  0.84517567  0.50000000  0.23395355  1
  F  F9  1  0.15482433  0.50000000  0.23395355  1
  F  F10  1  0.50000000  0.84517567  0.23395355  1
  F  F11  1  0.50000000  0.15482433  0.23395355  1
  F  F12  1  0.15482433  0.50000000  0.76604645  1
  F  F13  1  0.84517567  0.50000000  0.76604645  1
  F  F14  1  0.50000000  0.84517567  0.76604645  1
  F  F15  1  0.50000000  0.15482433  0.76604645  1
  Li  Li16  1  0.58680849  0.81120718  0.00000000  1
  Li  Li17  1  -0.58680849  -0.81120718  0.00000000  1
  Li  Li18  1  -0.81120718  0.58680849  0.00000000  1
  Li  Li19  1  0.81120718  -0.58680849  -0.00000000  1
  Li  Li20  1  -0.58680849  0.81120718  -0.00000000  1
  Li  Li21  1  0.58680849  -0.81120718  0.00000000  1
  Li  Li22  1  0.81120718  0.58680849  0.00000000  1
  Li  Li23  1  -0.81120718  -0.58680849  0.00000000  1
  Li  Li24  1  0.87687884  -0.00000000  -0.00000000  1
  Li  Li25  1  0.12312116  0.00000000  0.00000000  1
  Li  Li26  1  0.00000000  0.87687884  -0.00000000  1
  Li  Li27  1  0.00000000  0.12312116  0.00000000  1
  Li  Li28  1  0.50000000  0.50000000  0.00000000  1
  Li  Li29  1  0.00000000  0.50000000  0.50000000  1
  Li  Li30  1  0.50000000  0.00000000  0.50000000  1
  Li  Li31  1  0.00000000  0.00000000  0.50000000  1
