# generated using pymatgen
data_LiScTiOF
_symmetry_space_group_name_H-M   'P 1'
_cell_length_a   3.36804192
_cell_length_b   3.00754624
_cell_length_c   5.14010748
_cell_angle_alpha   107.77833686
_cell_angle_beta   102.42186932
_cell_angle_gamma   97.95588762
_symmetry_Int_Tables_number   1
_chemical_formula_structural   LiScTiOF
_chemical_formula_sum   'Li1 Sc1 Ti1 O1 F1'
_cell_volume   47.23936541
_cell_formula_units_Z   1
loop_
 _symmetry_equiv_pos_site_id
 _symmetry_equiv_pos_as_xyz
  1  'x, y, z'
loop_
 _atom_site_type_symbol
 _atom_site_label
 _atom_site_symmetry_multiplicity
 _atom_site_fract_x
 _atom_site_fract_y
 _atom_site_fract_z
 _atom_site_occupancy
  F  F0  1  0.00000000  0.00000000  0.00000000  1
  O  O1  1  0.50000000  0.50000000  0.50000000  1
  Sc  Sc2  1  0.25000000  0.25000000  0.25000000  1
  Ti  Ti3  1  0.75000000  0.25000000  0.00000000  1
  Li  Li4  1  0.25000000  0.75000000  0.50000000  1
