# generated using pymatgen
data_LiYPSe
_symmetry_space_group_name_H-M   'P 1'
_cell_length_a   5.56114619
_cell_length_b   5.73293442
_cell_length_c   7.22168496
_cell_angle_alpha   93.72989878
_cell_angle_beta   98.12294411
_cell_angle_gamma   104.98152097
_symmetry_Int_Tables_number   1
_chemical_formula_structural   LiYPSe
_chemical_formula_sum   'Li2 Y2 P2 Se2'
_cell_volume   218.93640744
_cell_formula_units_Z   2
loop_
 _symmetry_equiv_pos_site_id
 _symmetry_equiv_pos_as_xyz
  1  'x, y, z'
loop_
 _atom_site_type_symbol
 _atom_site_label
 _atom_site_symmetry_multiplicity
 _atom_site_fract_x
 _atom_site_fract_y
 _atom_site_fract_z
 _atom_site_occupancy
  Se  Se0  1  0.12500000  0.12500000  0.12500000  1
  Se  Se1  1  0.50000000  0.50000000  0.50000000  1
  P  P2  1  0.25000000  0.25000000  0.25000000  1
  P  P3  1  0.75000000  0.75000000  0.75000000  1
  Li  Li4  1  0.74387665  0.35425931  0.00117443  1
  Li  Li5  1  0.62246701  0.39911357  0.73850335  1
  Y  Y6  1  0.83138473  0.80358223  0.91411191  1
  Y  Y7  1  0.16814494  0.13389140  0.66429252  1
