# generated using pymatgen
data_LiY2Sb2(Te2P)2
_symmetry_space_group_name_H-M   'P 1'
_cell_length_a   5.17754293
_cell_length_b   5.31746626
_cell_length_c   6.72432107
_cell_angle_alpha   94.00282187
_cell_angle_beta   96.85347195
_cell_angle_gamma   103.15474716
_symmetry_Int_Tables_number   1
_chemical_formula_structural   LiY2Sb2(Te2P)2
_chemical_formula_sum   'Li1 Y2 Sb2 Te4 P2'
_cell_volume   178.08147161
_cell_formula_units_Z   1
loop_
 _symmetry_equiv_pos_site_id
 _symmetry_equiv_pos_as_xyz
  1  'x, y, z'
loop_
 _atom_site_type_symbol
 _atom_site_label
 _atom_site_symmetry_multiplicity
 _atom_site_fract_x
 _atom_site_fract_y
 _atom_site_fract_z
 _atom_site_occupancy
  Te  Te0  1  0.00000000  0.00000000  0.00000000  1
  Te  Te1  1  0.50000000  0.50000000  0.50000000  1
  Te  Te2  1  0.50000000  0.50000000  0.00000000  1
  Te  Te3  1  0.50000000  0.00000000  0.50000000  1
  Y  Y4  1  0.00000000  0.50000000  0.50000000  1
  Y  Y5  1  0.24041322  0.50341852  0.82186916  1
  P  P6  1  0.19016253  0.27045633  0.90625863  1
  P  P7  1  0.66271471  0.25886898  0.50479009  1
  Li  Li8  1  0.83183816  0.89550143  0.22621412  1
  Sb  Sb9  1  0.13192656  0.06745728  0.06524916  1
  Sb  Sb10  1  0.41507089  0.37751804  0.61447349  1
