# generated using pymatgen
data_LiF
_symmetry_space_group_name_H-M   'P 1'
_cell_length_a   8.15383679
_cell_length_b   8.15383679
_cell_length_c   18.64760795
_cell_angle_alpha   90.00000000
_cell_angle_beta   90.00000000
_cell_angle_gamma   120.00000000
_symmetry_Int_Tables_number   1
_chemical_formula_structural   LiF
_chemical_formula_sum   'Li42 F42'
_cell_volume   1073.68723493
_cell_formula_units_Z   42
loop_
 _symmetry_equiv_pos_site_id
 _symmetry_equiv_pos_as_xyz
  1  'x, y, z'
loop_
 _atom_site_type_symbol
 _atom_site_label
 _atom_site_symmetry_multiplicity
 _atom_site_fract_x
 _atom_site_fract_y
 _atom_site_fract_z
 _atom_site_occupancy
  F  F0  1  0.53105006  0.57569827  0.42336569  1
  F  F1  1  0.42430173  0.95535179  0.42336569  1
  F  F2  1  0.04464821  0.46894994  0.42336569  1
  F  F3  1  0.46894994  0.42430173  0.92336569  1
  F  F4  1  0.57569827  0.04464821  0.92336569  1
  F  F5  1  0.95535179  0.53105006  0.92336569  1
  F  F6  1  0.46894994  0.42430173  0.57663431  1
  F  F7  1  0.57569827  0.04464821  0.57663431  1
  F  F8  1  0.95535179  0.53105006  0.57663431  1
  F  F9  1  0.53105006  0.57569827  0.07663431  1
  F  F10  1  0.42430173  0.95535179  0.07663431  1
  F  F11  1  0.04464821  0.46894994  0.07663431  1
  F  F12  1  0.50000000  0.00000000  0.00000000  1
  F  F13  1  0.00000000  0.50000000  0.00000000  1
  F  F14  1  0.50000000  0.50000000  0.00000000  1
  F  F15  1  0.50000000  0.00000000  0.50000000  1
  F  F16  1  0.00000000  0.50000000  0.50000000  1
  F  F17  1  0.50000000  0.50000000  0.50000000  1
  F  F18  1  0.33333333  0.66666667  0.25000000  1
  F  F19  1  0.66666667  0.33333333  0.75000000  1
  F  F20  1  0.50431681  0.75387176  0.04330654  1
  F  F21  1  0.24612824  0.75044505  0.04330654  1
  F  F22  1  0.24955495  0.49568319  0.04330654  1
  F  F23  1  0.49568319  0.24612824  0.54330654  1
  F  F24  1  0.75387176  0.24955495  0.54330654  1
  F  F25  1  0.75044505  0.50431681  0.54330654  1
  F  F26  1  0.49568319  0.24612824  0.95669346  1
  F  F27  1  0.75387176  0.24955495  0.95669346  1
  F  F28  1  0.75044505  0.50431681  0.95669346  1
  F  F29  1  0.50431681  0.75387176  0.45669346  1
  F  F30  1  0.24612824  0.75044505  0.45669346  1
  F  F31  1  0.24955495  0.49568319  0.45669346  1
  F  F32  1  0.56091549  0.02046886  0.25000000  1
  F  F33  1  0.97953114  0.54044663  0.25000000  1
  F  F34  1  0.45955337  0.43908451  0.25000000  1
  F  F35  1  0.43908451  0.97953114  0.75000000  1
  F  F36  1  0.02046886  0.45955337  0.75000000  1
  F  F37  1  0.54044663  0.56091549  0.75000000  1
  F  F38  1  0.00000000  0.00000000  0.64689069  1
  F  F39  1  0.00000000  0.00000000  0.14689069  1
  F  F40  1  0.00000000  0.00000000  0.35310931  1
  F  F41  1  0.00000000  0.00000000  0.85310931  1
  Li  Li42  1  0.35016327  0.46964090  0.25000000  1
  Li  Li43  1  0.53035910  0.88052237  0.25000000  1
  Li  Li44  1  0.11947763  0.64983673  0.25000000  1
  Li  Li45  1  0.64983673  0.53035910  0.75000000  1
  Li  Li46  1  0.46964090  0.11947763  0.75000000  1
  Li  Li47  1  0.88052237  0.35016327  0.75000000  1
  Li  Li48  1  0.00000000  0.00000000  0.25000000  1
  Li  Li49  1  0.00000000  0.00000000  0.75000000  1
  Li  Li50  1  0.79515068  0.32688790  0.88764500  1
  Li  Li51  1  -0.32688790  0.46826278  0.88764500  1
  Li  Li52  1  -0.46826278  -0.79515068  0.88764500  1
  Li  Li53  1  -0.79515068  -0.32688790  1.38764500  1
  Li  Li54  1  0.32688790  -0.46826278  1.38764500  1
  Li  Li55  1  0.46826278  0.79515068  1.38764500  1
  Li  Li56  1  -0.79515068  -0.32688790  -0.88764500  1
  Li  Li57  1  0.32688790  -0.46826278  -0.88764500  1
  Li  Li58  1  0.46826278  0.79515068  -0.88764500  1
  Li  Li59  1  0.79515068  0.32688790  -0.38764500  1
  Li  Li60  1  -0.32688790  0.46826278  -0.38764500  1
  Li  Li61  1  -0.46826278  -0.79515068  -0.38764500  1
  Li  Li62  1  0.77307352  0.10139698  0.00067239  1
  Li  Li63  1  0.89860302  0.67167654  0.00067239  1
  Li  Li64  1  0.32832346  0.22692648  0.00067239  1
  Li  Li65  1  0.22692648  0.89860302  0.50067239  1
  Li  Li66  1  0.10139698  0.32832346  0.50067239  1
  Li  Li67  1  0.67167654  0.77307352  0.50067239  1
  Li  Li68  1  0.22692648  0.89860302  0.99932761  1
  Li  Li69  1  0.10139698  0.32832346  0.99932761  1
  Li  Li70  1  0.67167654  0.77307352  0.99932761  1
  Li  Li71  1  0.77307352  0.10139698  0.49932761  1
  Li  Li72  1  0.89860302  0.67167654  0.49932761  1
  Li  Li73  1  0.32832346  0.22692648  0.49932761  1
  Li  Li74  1  0.66666667  0.33333333  0.25000000  1
  Li  Li75  1  0.33333333  0.66666667  0.75000000  1
  Li  Li76  1  0.00000000  0.00000000  0.96335424  1
  Li  Li77  1  0.00000000  0.00000000  0.46335424  1
  Li  Li78  1  0.00000000  0.00000000  0.03664576  1
  Li  Li79  1  0.00000000  0.00000000  0.53664576  1
  Li  Li80  1  0.33333333  0.66666667  0.48270388  1
  Li  Li81  1  0.66666667  0.33333333  0.98270388  1
  Li  Li82  1  0.66666667  0.33333333  0.51729612  1
  Li  Li83  1  0.33333333  0.66666667  0.01729612  1
