# generated using pymatgen
data_LiY2Te4MoP2
_symmetry_space_group_name_H-M   'P 1'
_cell_length_a   4.84445037
_cell_length_b   5.03266365
_cell_length_c   6.85259934
_cell_angle_alpha   94.67218521
_cell_angle_beta   99.92289226
_cell_angle_gamma   108.31806163
_symmetry_Int_Tables_number   1
_chemical_formula_structural   LiY2Te4MoP2
_chemical_formula_sum   'Li1 Y2 Te4 Mo1 P2'
_cell_volume   154.57946315
_cell_formula_units_Z   1
loop_
 _symmetry_equiv_pos_site_id
 _symmetry_equiv_pos_as_xyz
  1  'x, y, z'
loop_
 _atom_site_type_symbol
 _atom_site_label
 _atom_site_symmetry_multiplicity
 _atom_site_fract_x
 _atom_site_fract_y
 _atom_site_fract_z
 _atom_site_occupancy
  Te  Te0  1  0.12500000  0.00000000  0.25000000  1
  Te  Te1  1  0.00000000  0.00000000  0.00000000  1
  Te  Te2  1  0.37500000  0.00000000  0.25000000  1
  Te  Te3  1  0.25000000  0.25000000  0.25000000  1
  P  P4  1  0.00000000  0.25000000  0.12500000  1
  P  P5  1  0.80532028  0.85400070  0.27401006  1
  Mo  Mo6  1  0.48754418  0.10478446  0.71420371  1
  Li  Li7  1  0.87383478  0.71868084  0.40429431  1
  Y  Y8  1  0.98983743  0.88936075  0.02663450  1
  Y  Y9  1  0.91948557  0.56216580  0.58171804  1
