# generated using pymatgen
data_Li8CaSeF8
_symmetry_space_group_name_H-M   'P 1'
_cell_length_a   9.26869754
_cell_length_b   10.44042251
_cell_length_c   9.46297432
_cell_angle_alpha   90.00000000
_cell_angle_beta   90.00000000
_cell_angle_gamma   90.00000000
_symmetry_Int_Tables_number   1
_chemical_formula_structural   Li8CaSeF8
_chemical_formula_sum   'Li32 Ca4 Se4 F32'
_cell_volume   915.72368267
_cell_formula_units_Z   4
loop_
 _symmetry_equiv_pos_site_id
 _symmetry_equiv_pos_as_xyz
  1  'x, y, z'
loop_
 _atom_site_type_symbol
 _atom_site_label
 _atom_site_symmetry_multiplicity
 _atom_site_fract_x
 _atom_site_fract_y
 _atom_site_fract_z
 _atom_site_occupancy
  Ca  Ca0  1  0.47855626  0.14986031  0.50000000  1
  Ca  Ca1  1  0.52144374  0.85013969  0.50000000  1
  Ca  Ca2  1  0.02144374  0.64986031  0.50000000  1
  Ca  Ca3  1  0.97855626  0.35013969  0.50000000  1
  F  F4  1  0.00000000  0.50000000  0.54516807  1
  F  F5  1  0.50000000  0.00000000  0.45483193  1
  F  F6  1  0.00000000  0.50000000  0.45483193  1
  F  F7  1  0.50000000  0.00000000  0.54516807  1
  F  F8  1  0.73919799  0.00846901  0.50000000  1
  F  F9  1  0.26080201  0.99153099  0.50000000  1
  F  F10  1  0.76080201  0.50846901  0.50000000  1
  F  F11  1  0.23919799  0.49153099  0.50000000  1
  F  F12  1  0.00000000  0.50000000  0.25270999  1
  F  F13  1  0.50000000  0.00000000  0.74729001  1
  F  F14  1  0.00000000  0.50000000  0.74729001  1
  F  F15  1  0.50000000  0.00000000  0.25270999  1
  F  F16  1  0.15913343  0.73175258  0.83381258  1
  F  F17  1  -0.15913343  -0.73175258  0.83381258  1
  F  F18  1  0.34086657  1.23175258  -0.83381258  1
  F  F19  1  0.65913343  -0.23175258  -0.83381258  1
  F  F20  1  -0.15913343  -0.73175258  -0.83381258  1
  F  F21  1  0.15913343  0.73175258  -0.83381258  1
  F  F22  1  0.65913343  -0.23175258  0.83381258  1
  F  F23  1  0.34086657  1.23175258  0.83381258  1
  F  F24  1  0.86934474  0.18981217  0.23508109  1
  F  F25  1  0.13065526  0.81018783  0.23508109  1
  F  F26  1  0.63065526  0.68981217  0.76491891  1
  F  F27  1  0.36934474  0.31018783  0.76491891  1
  F  F28  1  0.13065526  0.81018783  0.76491891  1
  F  F29  1  0.86934474  0.18981217  0.76491891  1
  F  F30  1  0.36934474  0.31018783  0.23508109  1
  F  F31  1  0.63065526  0.68981217  0.23508109  1
  F  F32  1  0.00000000  0.00000000  0.50000000  1
  F  F33  1  0.50000000  0.50000000  0.50000000  1
  F  F34  1  0.00000000  0.50000000  0.00000000  1
  F  F35  1  0.50000000  0.00000000  0.00000000  1
  Li  Li36  1  0.37197751  0.84997399  0.82641582  1
  Li  Li37  1  0.62802249  0.15002601  0.82641582  1
  Li  Li38  1  0.12802249  0.34997399  0.17358418  1
  Li  Li39  1  0.87197751  0.65002601  0.17358418  1
  Li  Li40  1  0.62802249  0.15002601  0.17358418  1
  Li  Li41  1  0.37197751  0.84997399  0.17358418  1
  Li  Li42  1  0.87197751  0.65002601  0.82641582  1
  Li  Li43  1  0.12802249  0.34997399  0.82641582  1
  Li  Li44  1  0.18076121  0.84988391  0.61569374  1
  Li  Li45  1  0.81923879  0.15011609  0.61569374  1
  Li  Li46  1  0.31923879  0.34988391  0.38430626  1
  Li  Li47  1  0.68076121  0.65011609  0.38430626  1
  Li  Li48  1  0.81923879  0.15011609  0.38430626  1
  Li  Li49  1  0.18076121  0.84988391  0.38430626  1
  Li  Li50  1  0.68076121  0.65011609  0.61569374  1
  Li  Li51  1  0.31923879  0.34988391  0.61569374  1
  Li  Li52  1  0.62692754  0.23840885  0.39892064  1
  Li  Li53  1  0.37307246  0.76159115  0.39892064  1
  Li  Li54  1  0.87307246  0.73840885  0.60107936  1
  Li  Li55  1  0.12692754  0.26159115  0.60107936  1
  Li  Li56  1  0.37307246  0.76159115  0.60107936  1
  Li  Li57  1  0.62692754  0.23840885  0.60107936  1
  Li  Li58  1  0.12692754  0.26159115  0.39892064  1
  Li  Li59  1  0.87307246  0.73840885  0.39892064  1
  Li  Li60  1  0.73209133  0.67634702  0.00000000  1
  Li  Li61  1  0.26790867  0.32365298  0.00000000  1
  Li  Li62  1  0.76790867  0.17634702  -0.00000000  1
  Li  Li63  1  0.23209133  0.82365298  -0.00000000  1
  Li  Li64  1  0.30115676  0.58546916  0.00000000  1
  Li  Li65  1  0.69884324  0.41453084  0.00000000  1
  Li  Li66  1  0.19884324  0.08546916  -0.00000000  1
  Li  Li67  1  0.80115676  0.91453084  -0.00000000  1
  Se  Se68  1  0.47256011  0.31875823  0.50000000  1
  Se  Se69  1  0.52743989  0.68124177  0.50000000  1
  Se  Se70  1  0.02743989  0.81875823  0.50000000  1
  Se  Se71  1  0.97256011  0.18124177  0.50000000  1
