# generated using pymatgen
data_Li2Y2MoP3Se2
_symmetry_space_group_name_H-M   'P 1'
_cell_length_a   5.62869965
_cell_length_b   5.96733548
_cell_length_c   7.39599722
_cell_angle_alpha   93.68437181
_cell_angle_beta   98.02379584
_cell_angle_gamma   104.79865723
_symmetry_Int_Tables_number   1
_chemical_formula_structural   Li2Y2MoP3Se2
_chemical_formula_sum   'Li2 Y2 Mo1 P3 Se2'
_cell_volume   236.52902503
_cell_formula_units_Z   1
loop_
 _symmetry_equiv_pos_site_id
 _symmetry_equiv_pos_as_xyz
  1  'x, y, z'
loop_
 _atom_site_type_symbol
 _atom_site_label
 _atom_site_symmetry_multiplicity
 _atom_site_fract_x
 _atom_site_fract_y
 _atom_site_fract_z
 _atom_site_occupancy
  Se  Se0  1  0.00000000  0.00000000  0.00000000  1
  Se  Se1  1  0.50000000  0.50000000  0.50000000  1
  P  P2  1  0.25000000  0.25000000  0.25000000  1
  P  P3  1  0.75000000  0.25000000  0.00000000  1
  P  P4  1  0.25000000  0.75000000  0.50000000  1
  Mo  Mo5  1  0.30251528  0.11235065  0.58660670  1
  Li  Li6  1  0.09885455  0.66350403  0.82670616  1
  Li  Li7  1  0.52898801  0.36104740  0.08003999  1
  Y  Y8  1  0.42839439  0.50419049  0.60727452  1
  Y  Y9  1  0.71075344  0.56963224  0.29220965  1
