# generated using pymatgen
data_Li4YScF
_symmetry_space_group_name_H-M   'P 1'
_cell_length_a   3.28610444
_cell_length_b   3.13617588
_cell_length_c   5.69959560
_cell_angle_alpha   111.51537002
_cell_angle_beta   102.53721613
_cell_angle_gamma   107.31033336
_symmetry_Int_Tables_number   1
_chemical_formula_structural   Li4YScF
_chemical_formula_sum   'Li4 Y1 Sc1 F1'
_cell_volume   48.52494454
_cell_formula_units_Z   1
loop_
 _symmetry_equiv_pos_site_id
 _symmetry_equiv_pos_as_xyz
  1  'x, y, z'
loop_
 _atom_site_type_symbol
 _atom_site_label
 _atom_site_symmetry_multiplicity
 _atom_site_fract_x
 _atom_site_fract_y
 _atom_site_fract_z
 _atom_site_occupancy
  F  F0  1  0.12500000  0.00000000  0.25000000  1
  Li  Li1  1  0.00000000  0.00000000  0.00000000  1
  Li  Li2  1  0.37500000  0.00000000  0.25000000  1
  Li  Li3  1  0.25000000  0.25000000  0.25000000  1
  Li  Li4  1  0.00000000  0.25000000  0.12500000  1
  Sc  Sc5  1  0.81061427  0.73601293  0.42779608  1
  Y  Y6  1  0.47359005  0.74345978  0.95787315  1
