# generated using pymatgen
data_LiCaF3
_symmetry_space_group_name_H-M   'P 1'
_cell_length_a   21.65892355
_cell_length_b   21.65892355
_cell_length_c   4.28043693
_cell_angle_alpha   90.00000000
_cell_angle_beta   90.00000000
_cell_angle_gamma   120.00000000
_symmetry_Int_Tables_number   1
_chemical_formula_structural   LiCaF3
_chemical_formula_sum   'Li18 Ca18 F54'
_cell_volume   1738.97152710
_cell_formula_units_Z   18
loop_
 _symmetry_equiv_pos_site_id
 _symmetry_equiv_pos_as_xyz
  1  'x, y, z'
loop_
 _atom_site_type_symbol
 _atom_site_label
 _atom_site_symmetry_multiplicity
 _atom_site_fract_x
 _atom_site_fract_y
 _atom_site_fract_z
 _atom_site_occupancy
  Ca  Ca0  1  0.14134814  -0.00000000  0.25000000  1
  Ca  Ca1  1  0.00000000  0.14134814  0.25000000  1
  Ca  Ca2  1  0.85865186  0.85865186  0.25000000  1
  Ca  Ca3  1  0.85865186  0.00000000  0.75000000  1
  Ca  Ca4  1  0.00000000  0.85865186  0.75000000  1
  Ca  Ca5  1  0.14134814  0.14134814  0.75000000  1
  Ca  Ca6  1  0.80801481  0.33333333  0.58333333  1
  Ca  Ca7  1  0.66666667  0.47468147  0.58333333  1
  Ca  Ca8  1  0.52531853  0.19198519  0.58333333  1
  Ca  Ca9  1  0.52531853  0.33333333  0.08333333  1
  Ca  Ca10  1  0.66666667  0.19198519  0.08333333  1
  Ca  Ca11  1  0.80801481  0.47468147  0.08333333  1
  Ca  Ca12  1  0.47468147  0.66666667  0.91666667  1
  Ca  Ca13  1  0.33333333  0.80801481  0.91666667  1
  Ca  Ca14  1  0.19198519  0.52531853  0.91666667  1
  Ca  Ca15  1  0.19198519  0.66666667  0.41666667  1
  Ca  Ca16  1  0.33333333  0.52531853  0.41666667  1
  Ca  Ca17  1  0.47468147  0.80801481  0.41666667  1
  F  F18  1  0.00000000  0.00000000  0.17352931  1
  F  F19  1  0.00000000  0.00000000  0.32647069  1
  F  F20  1  0.00000000  0.00000000  0.82647069  1
  F  F21  1  0.00000000  0.00000000  0.67352931  1
  F  F22  1  0.66666667  0.33333333  0.50686265  1
  F  F23  1  0.66666667  0.33333333  0.65980402  1
  F  F24  1  0.66666667  0.33333333  0.15980402  1
  F  F25  1  0.66666667  0.33333333  0.00686265  1
  F  F26  1  0.33333333  0.66666667  0.84019598  1
  F  F27  1  0.33333333  0.66666667  0.99313735  1
  F  F28  1  0.33333333  0.66666667  0.49313735  1
  F  F29  1  0.33333333  0.66666667  0.34019598  1
  F  F30  1  0.24177007  0.33719610  0.38235005  1
  F  F31  1  -0.33719610  -0.09542603  0.38235005  1
  F  F32  1  0.09542603  -0.24177007  0.38235005  1
  F  F33  1  0.33719610  0.24177007  0.11764995  1
  F  F34  1  -0.09542603  -0.33719610  0.11764995  1
  F  F35  1  -0.24177007  0.09542603  0.11764995  1
  F  F36  1  -0.24177007  -0.33719610  -0.38235005  1
  F  F37  1  0.33719610  0.09542603  -0.38235005  1
  F  F38  1  -0.09542603  0.24177007  -0.38235005  1
  F  F39  1  -0.33719610  -0.24177007  0.88235005  1
  F  F40  1  0.09542603  0.33719610  0.88235005  1
  F  F41  1  0.24177007  -0.09542603  0.88235005  1
  F  F42  1  0.90843674  0.67052943  0.71568338  1
  F  F43  1  0.32947057  0.23790730  0.71568338  1
  F  F44  1  0.76209270  0.09156326  0.71568338  1
  F  F45  1  1.00386277  0.57510340  0.45098329  1
  F  F46  1  0.57124064  -0.00386277  0.45098329  1
  F  F47  1  0.42489660  0.42875936  0.45098329  1
  F  F48  1  0.42489660  -0.00386277  -0.04901671  1
  F  F49  1  1.00386277  0.42875936  -0.04901671  1
  F  F50  1  0.57124064  0.57510340  -0.04901671  1
  F  F51  1  0.32947057  0.09156326  1.21568338  1
  F  F52  1  0.76209270  0.67052943  1.21568338  1
  F  F53  1  0.90843674  0.23790730  1.21568338  1
  F  F54  1  0.57510340  1.00386277  1.04901671  1
  F  F55  1  -0.00386277  0.57124064  1.04901671  1
  F  F56  1  0.42875936  0.42489660  1.04901671  1
  F  F57  1  0.67052943  0.90843674  0.78431662  1
  F  F58  1  0.23790730  0.32947057  0.78431662  1
  F  F59  1  0.09156326  0.76209270  0.78431662  1
  F  F60  1  0.09156326  0.32947057  0.28431662  1
  F  F61  1  0.67052943  0.76209270  0.28431662  1
  F  F62  1  0.23790730  0.90843674  0.28431662  1
  F  F63  1  -0.00386277  0.42489660  1.54901671  1
  F  F64  1  0.42875936  1.00386277  1.54901671  1
  F  F65  1  0.57510340  0.57124064  1.54901671  1
  F  F66  1  0.00000000  0.00000000  0.00000000  1
  F  F67  1  0.00000000  0.00000000  0.50000000  1
  F  F68  1  0.66666667  0.33333333  0.33333333  1
  F  F69  1  0.66666667  0.33333333  0.83333333  1
  F  F70  1  0.33333333  0.66666667  0.66666667  1
  F  F71  1  0.33333333  0.66666667  0.16666667  1
  Li  Li72  1  0.50000000  0.00000000  0.00000000  1
  Li  Li73  1  0.00000000  0.50000000  0.00000000  1
  Li  Li74  1  0.50000000  0.50000000  0.00000000  1
  Li  Li75  1  0.00000000  0.50000000  0.50000000  1
  Li  Li76  1  0.50000000  0.00000000  0.50000000  1
  Li  Li77  1  0.50000000  0.50000000  0.50000000  1
  Li  Li78  1  0.16666667  0.33333333  0.33333333  1
  Li  Li79  1  0.66666667  0.83333333  0.33333333  1
  Li  Li80  1  0.16666667  0.83333333  0.33333333  1
  Li  Li81  1  0.66666667  0.83333333  0.83333333  1
  Li  Li82  1  0.16666667  0.33333333  0.83333333  1
  Li  Li83  1  0.16666667  0.83333333  0.83333333  1
  Li  Li84  1  0.83333333  0.66666667  0.66666667  1
  Li  Li85  1  0.33333333  0.16666667  0.66666667  1
  Li  Li86  1  0.83333333  0.16666667  0.66666667  1
  Li  Li87  1  0.33333333  0.16666667  0.16666667  1
  Li  Li88  1  0.83333333  0.66666667  0.16666667  1
  Li  Li89  1  0.83333333  0.16666667  0.16666667  1
