# generated using pymatgen
data_Li2Y2AsP4
_symmetry_space_group_name_H-M   'P 1'
_cell_length_a   4.43337944
_cell_length_b   4.65342101
_cell_length_c   6.91424045
_cell_angle_alpha   95.77572959
_cell_angle_beta   102.07908685
_cell_angle_gamma   110.77261001
_symmetry_Int_Tables_number   1
_chemical_formula_structural   Li2Y2AsP4
_chemical_formula_sum   'Li2 Y2 As1 P4'
_cell_volume   128.01091107
_cell_formula_units_Z   1
loop_
 _symmetry_equiv_pos_site_id
 _symmetry_equiv_pos_as_xyz
  1  'x, y, z'
loop_
 _atom_site_type_symbol
 _atom_site_label
 _atom_site_symmetry_multiplicity
 _atom_site_fract_x
 _atom_site_fract_y
 _atom_site_fract_z
 _atom_site_occupancy
  Y  Y0  1  0.00000000  0.00000000  0.00000000  1
  Y  Y1  1  0.50000000  0.50000000  0.50000000  1
  P  P2  1  0.50000000  0.50000000  0.00000000  1
  P  P3  1  0.50000000  0.00000000  0.50000000  1
  P  P4  1  0.00000000  0.50000000  0.50000000  1
  P  P5  1  0.86013875  0.29827680  0.27887780  1
  As  As6  1  0.41665912  0.05236611  0.91154370  1
  Li  Li7  1  0.79924541  0.25357517  0.43902714  1
  Li  Li8  1  0.61872586  0.02417057  0.28987475  1
