# generated using pymatgen
data_Li3Y2As4P3Se2
_symmetry_space_group_name_H-M   'P 1'
_cell_length_a   5.20050147
_cell_length_b   5.22289122
_cell_length_c   6.94665378
_cell_angle_alpha   94.33775332
_cell_angle_beta   99.44672492
_cell_angle_gamma   107.42303107
_symmetry_Int_Tables_number   1
_chemical_formula_structural   Li3Y2As4P3Se2
_chemical_formula_sum   'Li3 Y2 As4 P3 Se2'
_cell_volume   176.01683092
_cell_formula_units_Z   1
loop_
 _symmetry_equiv_pos_site_id
 _symmetry_equiv_pos_as_xyz
  1  'x, y, z'
loop_
 _atom_site_type_symbol
 _atom_site_label
 _atom_site_symmetry_multiplicity
 _atom_site_fract_x
 _atom_site_fract_y
 _atom_site_fract_z
 _atom_site_occupancy
  Se  Se0  1  0.00000000  0.00000000  0.00000000  1
  Se  Se1  1  0.50000000  0.50000000  0.50000000  1
  P  P2  1  0.25000000  0.25000000  0.25000000  1
  P  P3  1  0.75000000  0.25000000  0.00000000  1
  P  P4  1  0.25000000  0.75000000  0.50000000  1
  As  As5  1  0.53397257  0.18655233  0.12876766  1
  As  As6  1  0.57197112  0.65420824  0.43300634  1
  As  As7  1  0.49323594  0.61865910  0.62929728  1
  As  As8  1  0.63112325  0.18771605  0.91346486  1
  Li  Li9  1  0.96852515  0.82014195  0.51276861  1
  Li  Li10  1  0.50873888  0.61403751  0.42349951  1
  Li  Li11  1  0.71536424  0.42966038  0.07324199  1
  Y  Y12  1  0.20898437  0.60068264  0.14984516  1
  Y  Y13  1  0.02973433  0.47435784  0.56837445  1
