# generated using pymatgen
data_Li4TeF2
_symmetry_space_group_name_H-M   'P 1'
_cell_length_a   12.33249190
_cell_length_b   12.33249190
_cell_length_c   23.72205198
_cell_angle_alpha   90.00000000
_cell_angle_beta   90.00000000
_cell_angle_gamma   120.00000000
_symmetry_Int_Tables_number   1
_chemical_formula_structural   Li4TeF2
_chemical_formula_sum   'Li96 Te24 F48'
_cell_volume   3124.52901835
_cell_formula_units_Z   24
loop_
 _symmetry_equiv_pos_site_id
 _symmetry_equiv_pos_as_xyz
  1  'x, y, z'
loop_
 _atom_site_type_symbol
 _atom_site_label
 _atom_site_symmetry_multiplicity
 _atom_site_fract_x
 _atom_site_fract_y
 _atom_site_fract_z
 _atom_site_occupancy
  F  F0  1  0.00000000  0.00000000  0.56701447  1
  F  F1  1  0.00000000  0.00000000  0.93298553  1
  F  F2  1  0.00000000  0.00000000  0.43298553  1
  F  F3  1  0.00000000  0.00000000  0.06701447  1
  F  F4  1  0.66666667  0.33333333  0.90034781  1
  F  F5  1  0.66666667  0.33333333  0.26631886  1
  F  F6  1  0.66666667  0.33333333  0.76631886  1
  F  F7  1  0.66666667  0.33333333  0.40034781  1
  F  F8  1  0.33333333  0.66666667  0.23368114  1
  F  F9  1  0.33333333  0.66666667  0.59965219  1
  F  F10  1  0.33333333  0.66666667  0.09965219  1
  F  F11  1  0.33333333  0.66666667  0.73368114  1
  F  F12  1  0.34728050  0.21719649  0.26452334  1
  F  F13  1  -0.21719649  0.13008401  0.26452334  1
  F  F14  1  -0.13008401  -0.34728050  0.26452334  1
  F  F15  1  0.21719649  0.34728050  0.23547666  1
  F  F16  1  0.13008401  -0.21719649  0.23547666  1
  F  F17  1  -0.34728050  -0.13008401  0.23547666  1
  F  F18  1  -0.34728050  -0.21719649  -0.26452334  1
  F  F19  1  0.21719649  -0.13008401  -0.26452334  1
  F  F20  1  0.13008401  0.34728050  -0.26452334  1
  F  F21  1  -0.21719649  -0.34728050  0.76452334  1
  F  F22  1  -0.13008401  0.21719649  0.76452334  1
  F  F23  1  0.34728050  0.13008401  0.76452334  1
  F  F24  1  1.01394716  0.55052982  0.59785668  1
  F  F25  1  0.44947018  0.46341734  0.59785668  1
  F  F26  1  0.53658266  -0.01394716  0.59785668  1
  F  F27  1  0.88386315  0.68061383  0.56880999  1
  F  F28  1  0.79675068  0.11613685  0.56880999  1
  F  F29  1  0.31938617  0.20324932  0.56880999  1
  F  F30  1  0.31938617  0.11613685  0.06880999  1
  F  F31  1  0.88386315  0.20324932  0.06880999  1
  F  F32  1  0.79675068  0.68061383  0.06880999  1
  F  F33  1  0.44947018  -0.01394716  1.09785668  1
  F  F34  1  0.53658266  0.55052982  1.09785668  1
  F  F35  1  1.01394716  0.46341734  1.09785668  1
  F  F36  1  0.68061383  0.88386315  0.93119001  1
  F  F37  1  0.11613685  0.79675068  0.93119001  1
  F  F38  1  0.20324932  0.31938617  0.93119001  1
  F  F39  1  0.55052982  1.01394716  0.90214332  1
  F  F40  1  0.46341734  0.44947018  0.90214332  1
  F  F41  1  -0.01394716  0.53658266  0.90214332  1
  F  F42  1  -0.01394716  0.44947018  0.40214332  1
  F  F43  1  0.55052982  0.53658266  0.40214332  1
  F  F44  1  0.46341734  1.01394716  0.40214332  1
  F  F45  1  0.11613685  0.31938617  1.43119001  1
  F  F46  1  0.20324932  0.88386315  1.43119001  1
  F  F47  1  0.68061383  0.79675068  1.43119001  1
  Li  Li48  1  0.44947383  -0.00000000  0.25000000  1
  Li  Li49  1  0.00000000  0.44947383  0.25000000  1
  Li  Li50  1  0.55052617  0.55052617  0.25000000  1
  Li  Li51  1  0.55052617  -0.00000000  0.75000000  1
  Li  Li52  1  0.00000000  0.55052617  0.75000000  1
  Li  Li53  1  0.44947383  0.44947383  0.75000000  1
  Li  Li54  1  0.11614049  0.33333333  0.58333333  1
  Li  Li55  1  0.66666667  0.78280716  0.58333333  1
  Li  Li56  1  0.21719284  0.88385951  0.58333333  1
  Li  Li57  1  0.21719284  0.33333333  0.08333333  1
  Li  Li58  1  0.66666667  0.88385951  0.08333333  1
  Li  Li59  1  0.11614049  0.78280716  0.08333333  1
  Li  Li60  1  0.78280716  0.66666667  0.91666667  1
  Li  Li61  1  0.33333333  0.11614049  0.91666667  1
  Li  Li62  1  0.88385951  0.21719284  0.91666667  1
  Li  Li63  1  0.88385951  0.66666667  0.41666667  1
  Li  Li64  1  0.33333333  0.21719284  0.41666667  1
  Li  Li65  1  0.78280716  0.11614049  0.41666667  1
  Li  Li66  1  0.00000000  0.00000000  0.35882603  1
  Li  Li67  1  0.00000000  0.00000000  0.14117397  1
  Li  Li68  1  0.00000000  0.00000000  0.64117397  1
  Li  Li69  1  0.00000000  0.00000000  0.85882603  1
  Li  Li70  1  0.66666667  0.33333333  0.69215936  1
  Li  Li71  1  0.66666667  0.33333333  0.47450731  1
  Li  Li72  1  0.66666667  0.33333333  0.97450731  1
  Li  Li73  1  0.66666667  0.33333333  0.19215936  1
  Li  Li74  1  0.33333333  0.66666667  0.02549269  1
  Li  Li75  1  0.33333333  0.66666667  0.80784064  1
  Li  Li76  1  0.33333333  0.66666667  0.30784064  1
  Li  Li77  1  0.33333333  0.66666667  0.52549269  1
  Li  Li78  1  0.76264099  0.24044445  0.89591272  1
  Li  Li79  1  0.75955555  0.52219654  0.89591272  1
  Li  Li80  1  0.47780346  0.23735901  0.89591272  1
  Li  Li81  1  0.24044445  0.76264099  0.60408728  1
  Li  Li82  1  0.52219654  0.75955555  0.60408728  1
  Li  Li83  1  0.23735901  0.47780346  0.60408728  1
  Li  Li84  1  0.23735901  0.75955555  0.10408728  1
  Li  Li85  1  0.24044445  0.47780346  0.10408728  1
  Li  Li86  1  0.52219654  0.76264099  0.10408728  1
  Li  Li87  1  0.75955555  0.23735901  0.39591272  1
  Li  Li88  1  0.47780346  0.24044445  0.39591272  1
  Li  Li89  1  0.76264099  0.52219654  0.39591272  1
  Li  Li90  1  0.42930766  0.57377778  0.22924605  1
  Li  Li91  1  0.42622222  0.85552988  0.22924605  1
  Li  Li92  1  0.14447012  0.57069234  0.22924605  1
  Li  Li93  1  0.90711112  0.09597433  0.93742061  1
  Li  Li94  1  0.18886321  0.09288888  0.93742061  1
  Li  Li95  1  0.90402567  0.81113679  0.93742061  1
  Li  Li96  1  0.90402567  0.09288888  0.43742061  1
  Li  Li97  1  0.90711112  0.81113679  0.43742061  1
  Li  Li98  1  0.18886321  0.09597433  0.43742061  1
  Li  Li99  1  0.42622222  0.57069234  0.72924605  1
  Li  Li100  1  0.14447012  0.57377778  0.72924605  1
  Li  Li101  1  0.42930766  0.85552988  0.72924605  1
  Li  Li102  1  0.09597433  0.90711112  0.56257939  1
  Li  Li103  1  0.09288888  0.18886321  0.56257939  1
  Li  Li104  1  0.81113679  0.90402567  0.56257939  1
  Li  Li105  1  0.57377778  0.42930766  0.27075395  1
  Li  Li106  1  0.85552988  0.42622222  0.27075395  1
  Li  Li107  1  0.57069234  0.14447012  0.27075395  1
  Li  Li108  1  0.57069234  0.42622222  0.77075395  1
  Li  Li109  1  0.57377778  0.14447012  0.77075395  1
  Li  Li110  1  0.85552988  0.42930766  0.77075395  1
  Li  Li111  1  0.09288888  0.90402567  0.06257939  1
  Li  Li112  1  0.81113679  0.90711112  0.06257939  1
  Li  Li113  1  0.09597433  0.18886321  0.06257939  1
  Li  Li114  1  0.79578740  0.00000000  0.25000000  1
  Li  Li115  1  0.00000000  0.79578740  0.25000000  1
  Li  Li116  1  0.20421260  0.20421260  0.25000000  1
  Li  Li117  1  0.20421260  -0.00000000  0.75000000  1
  Li  Li118  1  0.00000000  0.20421260  0.75000000  1
  Li  Li119  1  0.79578740  0.79578740  0.75000000  1
  Li  Li120  1  0.46245407  0.33333333  0.58333333  1
  Li  Li121  1  0.66666667  0.12912074  0.58333333  1
  Li  Li122  1  0.87087926  0.53754593  0.58333333  1
  Li  Li123  1  0.87087926  0.33333333  0.08333333  1
  Li  Li124  1  0.66666667  0.53754593  0.08333333  1
  Li  Li125  1  0.46245407  0.12912074  0.08333333  1
  Li  Li126  1  0.12912074  0.66666667  0.91666667  1
  Li  Li127  1  0.33333333  0.46245407  0.91666667  1
  Li  Li128  1  0.53754593  0.87087926  0.91666667  1
  Li  Li129  1  0.53754593  0.66666667  0.41666667  1
  Li  Li130  1  0.33333333  0.87087926  0.41666667  1
  Li  Li131  1  0.12912074  0.46245407  0.41666667  1
  Li  Li132  1  0.00000000  0.00000000  0.78795908  1
  Li  Li133  1  0.00000000  0.00000000  0.71204092  1
  Li  Li134  1  0.00000000  0.00000000  0.21204092  1
  Li  Li135  1  0.00000000  0.00000000  0.28795908  1
  Li  Li136  1  0.66666667  0.33333333  0.12129241  1
  Li  Li137  1  0.66666667  0.33333333  0.04537426  1
  Li  Li138  1  0.66666667  0.33333333  0.54537426  1
  Li  Li139  1  0.66666667  0.33333333  0.62129241  1
  Li  Li140  1  0.33333333  0.66666667  0.45462574  1
  Li  Li141  1  0.33333333  0.66666667  0.37870759  1
  Li  Li142  1  0.33333333  0.66666667  0.87870759  1
  Li  Li143  1  0.33333333  0.66666667  0.95462574  1
  Te  Te144  1  0.50000000  -0.00000000  -0.00000000  1
  Te  Te145  1  0.00000000  0.50000000  0.00000000  1
  Te  Te146  1  0.50000000  0.50000000  0.00000000  1
  Te  Te147  1  0.00000000  0.50000000  0.50000000  1
  Te  Te148  1  0.50000000  -0.00000000  0.50000000  1
  Te  Te149  1  0.50000000  0.50000000  0.50000000  1
  Te  Te150  1  0.16666667  0.33333333  0.33333333  1
  Te  Te151  1  0.66666667  0.83333333  0.33333333  1
  Te  Te152  1  0.16666667  0.83333333  0.33333333  1
  Te  Te153  1  0.66666667  0.83333333  0.83333333  1
  Te  Te154  1  0.16666667  0.33333333  0.83333333  1
  Te  Te155  1  0.16666667  0.83333333  0.83333333  1
  Te  Te156  1  0.83333333  0.66666667  0.66666667  1
  Te  Te157  1  0.33333333  0.16666667  0.66666667  1
  Te  Te158  1  0.83333333  0.16666667  0.66666667  1
  Te  Te159  1  0.33333333  0.16666667  0.16666667  1
  Te  Te160  1  0.83333333  0.66666667  0.16666667  1
  Te  Te161  1  0.83333333  0.16666667  0.16666667  1
  Te  Te162  1  0.00000000  0.00000000  0.00000000  1
  Te  Te163  1  0.00000000  0.00000000  0.50000000  1
  Te  Te164  1  0.66666667  0.33333333  0.33333333  1
  Te  Te165  1  0.66666667  0.33333333  0.83333333  1
  Te  Te166  1  0.33333333  0.66666667  0.66666667  1
  Te  Te167  1  0.33333333  0.66666667  0.16666667  1
