# generated using pymatgen
data_Li4TeF2
_symmetry_space_group_name_H-M   'P 1'
_cell_length_a   14.51655359
_cell_length_b   14.51655359
_cell_length_c   9.41936440
_cell_angle_alpha   90.00000000
_cell_angle_beta   90.00000000
_cell_angle_gamma   90.00000000
_symmetry_Int_Tables_number   1
_chemical_formula_structural   Li4TeF2
_chemical_formula_sum   'Li96 Te24 F48'
_cell_volume   1984.94575234
_cell_formula_units_Z   24
loop_
 _symmetry_equiv_pos_site_id
 _symmetry_equiv_pos_as_xyz
  1  'x, y, z'
loop_
 _atom_site_type_symbol
 _atom_site_label
 _atom_site_symmetry_multiplicity
 _atom_site_fract_x
 _atom_site_fract_y
 _atom_site_fract_z
 _atom_site_occupancy
  F  F0  1  0.86831223  0.31590816  0.89361247  1
  F  F1  1  -0.36831223  -0.31590816  1.39361247  1
  F  F2  1  -0.06590816  1.61831223  1.14361247  1
  F  F3  1  0.56590816  -0.61831223  1.64361247  1
  F  F4  1  -0.36831223  0.31590816  -0.89361247  1
  F  F5  1  0.86831223  -0.31590816  -0.39361247  1
  F  F6  1  0.56590816  1.61831223  -0.14361247  1
  F  F7  1  -0.06590816  -0.61831223  -0.64361247  1
  F  F8  1  -0.86831223  -0.31590816  -0.89361247  1
  F  F9  1  1.36831223  0.31590816  -0.39361247  1
  F  F10  1  1.06590816  -0.61831223  -0.14361247  1
  F  F11  1  0.43409184  1.61831223  -0.64361247  1
  F  F12  1  1.36831223  -0.31590816  0.89361247  1
  F  F13  1  -0.86831223  0.31590816  1.39361247  1
  F  F14  1  0.43409184  -0.61831223  1.14361247  1
  F  F15  1  1.06590816  1.61831223  1.64361247  1
  F  F16  1  1.36831223  0.81590816  1.39361247  1
  F  F17  1  0.13168777  0.18409184  1.89361247  1
  F  F18  1  0.43409184  2.11831223  1.64361247  1
  F  F19  1  1.06590816  -0.11831223  2.14361247  1
  F  F20  1  0.13168777  0.81590816  -0.39361247  1
  F  F21  1  1.36831223  0.18409184  0.10638753  1
  F  F22  1  1.06590816  2.11831223  0.35638753  1
  F  F23  1  0.43409184  -0.11831223  -0.14361247  1
  F  F24  1  -0.36831223  0.18409184  -0.39361247  1
  F  F25  1  1.86831223  0.81590816  0.10638753  1
  F  F26  1  1.56590816  -0.11831223  0.35638753  1
  F  F27  1  0.93409184  2.11831223  -0.14361247  1
  F  F28  1  1.86831223  0.18409184  1.39361247  1
  F  F29  1  -0.36831223  0.81590816  1.89361247  1
  F  F30  1  0.93409184  -0.11831223  1.64361247  1
  F  F31  1  1.56590816  2.11831223  2.14361247  1
  F  F32  1  0.02159222  0.27159222  0.12500000  1
  F  F33  1  0.47840778  0.72840778  0.62500000  1
  F  F34  1  0.97840778  0.77159222  0.37500000  1
  F  F35  1  0.52159222  0.22840778  0.87500000  1
  F  F36  1  0.97840778  0.72840778  0.87500000  1
  F  F37  1  0.52159222  0.27159222  0.37500000  1
  F  F38  1  0.02159222  0.22840778  0.62500000  1
  F  F39  1  0.47840778  0.77159222  0.12500000  1
  F  F40  1  0.52159222  0.77159222  0.62500000  1
  F  F41  1  0.97840778  0.22840778  0.12500000  1
  F  F42  1  0.47840778  0.27159222  0.87500000  1
  F  F43  1  0.02159222  0.72840778  0.37500000  1
  F  F44  1  0.47840778  0.22840778  0.37500000  1
  F  F45  1  0.02159222  0.77159222  0.87500000  1
  F  F46  1  0.52159222  0.72840778  0.12500000  1
  F  F47  1  0.97840778  0.27159222  0.62500000  1
  Li  Li48  1  0.14210810  0.00000000  0.25000000  1
  Li  Li49  1  0.35789190  0.00000000  0.75000000  1
  Li  Li50  1  0.25000000  0.89210810  0.50000000  1
  Li  Li51  1  0.25000000  0.10789190  0.00000000  1
  Li  Li52  1  0.85789190  -0.00000000  0.75000000  1
  Li  Li53  1  0.64210810  0.00000000  0.25000000  1
  Li  Li54  1  0.75000000  0.10789190  0.50000000  1
  Li  Li55  1  0.75000000  0.89210810  0.00000000  1
  Li  Li56  1  0.64210810  0.50000000  0.75000000  1
  Li  Li57  1  0.85789190  0.50000000  0.25000000  1
  Li  Li58  1  0.75000000  0.39210810  0.00000000  1
  Li  Li59  1  0.75000000  0.60789190  0.50000000  1
  Li  Li60  1  0.35789190  0.50000000  0.25000000  1
  Li  Li61  1  0.14210810  0.50000000  0.75000000  1
  Li  Li62  1  0.25000000  0.60789190  0.00000000  1
  Li  Li63  1  0.25000000  0.39210810  0.50000000  1
  Li  Li64  1  0.85973237  0.46521083  0.93532288  1
  Li  Li65  1  0.64026763  0.53478917  0.43532288  1
  Li  Li66  1  0.78478917  0.60973237  0.18532288  1
  Li  Li67  1  0.71521083  0.39026763  0.68532288  1
  Li  Li68  1  0.64026763  0.46521083  0.06467712  1
  Li  Li69  1  0.85973237  0.53478917  0.56467712  1
  Li  Li70  1  0.71521083  0.60973237  0.81467712  1
  Li  Li71  1  0.78478917  0.39026763  0.31467712  1
  Li  Li72  1  0.14026763  0.53478917  0.06467712  1
  Li  Li73  1  0.35973237  0.46521083  0.56467712  1
  Li  Li74  1  0.21521083  0.39026763  0.81467712  1
  Li  Li75  1  0.28478917  0.60973237  0.31467712  1
  Li  Li76  1  0.35973237  0.53478917  0.93532288  1
  Li  Li77  1  0.14026763  0.46521083  0.43532288  1
  Li  Li78  1  0.28478917  0.39026763  0.18532288  1
  Li  Li79  1  0.21521083  0.60973237  0.68532288  1
  Li  Li80  1  0.35973237  0.96521083  0.43532288  1
  Li  Li81  1  0.14026763  0.03478917  0.93532288  1
  Li  Li82  1  0.28478917  0.10973237  0.68532288  1
  Li  Li83  1  0.21521083  0.89026763  0.18532288  1
  Li  Li84  1  0.14026763  0.96521083  0.56467712  1
  Li  Li85  1  0.35973237  0.03478917  0.06467712  1
  Li  Li86  1  0.21521083  0.10973237  0.31467712  1
  Li  Li87  1  0.28478917  0.89026763  0.81467712  1
  Li  Li88  1  0.64026763  0.03478917  0.56467712  1
  Li  Li89  1  0.85973237  0.96521083  0.06467712  1
  Li  Li90  1  0.71521083  0.89026763  0.31467712  1
  Li  Li91  1  0.78478917  0.10973237  0.81467712  1
  Li  Li92  1  0.85973237  0.03478917  0.43532288  1
  Li  Li93  1  0.64026763  0.96521083  0.93532288  1
  Li  Li94  1  0.78478917  0.89026763  0.68532288  1
  Li  Li95  1  0.71521083  0.10973237  0.18532288  1
  Li  Li96  1  0.53894915  0.90178641  0.67351436  1
  Li  Li97  1  0.96105085  0.09821359  0.17351436  1
  Li  Li98  1  0.34821359  0.28894915  0.92351436  1
  Li  Li99  1  0.15178641  0.71105085  0.42351436  1
  Li  Li100  1  0.96105085  0.90178641  0.32648564  1
  Li  Li101  1  0.53894915  0.09821359  0.82648564  1
  Li  Li102  1  0.15178641  0.28894915  0.07648564  1
  Li  Li103  1  0.34821359  0.71105085  0.57648564  1
  Li  Li104  1  0.46105085  0.09821359  0.32648564  1
  Li  Li105  1  0.03894915  0.90178641  0.82648564  1
  Li  Li106  1  0.65178641  0.71105085  0.07648564  1
  Li  Li107  1  0.84821359  0.28894915  0.57648564  1
  Li  Li108  1  0.03894915  0.09821359  0.67351436  1
  Li  Li109  1  0.46105085  0.90178641  0.17351436  1
  Li  Li110  1  0.84821359  0.71105085  0.92351436  1
  Li  Li111  1  0.65178641  0.28894915  0.42351436  1
  Li  Li112  1  0.03894915  0.40178641  0.17351436  1
  Li  Li113  1  0.46105085  0.59821359  0.67351436  1
  Li  Li114  1  0.84821359  0.78894915  0.42351436  1
  Li  Li115  1  0.65178641  0.21105085  0.92351436  1
  Li  Li116  1  0.46105085  0.40178641  0.82648564  1
  Li  Li117  1  0.03894915  0.59821359  0.32648564  1
  Li  Li118  1  0.65178641  0.78894915  0.57648564  1
  Li  Li119  1  0.84821359  0.21105085  0.07648564  1
  Li  Li120  1  0.96105085  0.59821359  0.82648564  1
  Li  Li121  1  0.53894915  0.40178641  0.32648564  1
  Li  Li122  1  0.15178641  0.21105085  0.57648564  1
  Li  Li123  1  0.34821359  0.78894915  0.07648564  1
  Li  Li124  1  0.53894915  0.59821359  0.17351436  1
  Li  Li125  1  0.96105085  0.40178641  0.67351436  1
  Li  Li126  1  0.34821359  0.21105085  0.42351436  1
  Li  Li127  1  0.15178641  0.78894915  0.92351436  1
  Li  Li128  1  0.00000000  0.25000000  0.22361949  1
  Li  Li129  1  0.00000000  0.75000000  0.47361949  1
  Li  Li130  1  0.50000000  0.25000000  0.77638051  1
  Li  Li131  1  0.50000000  0.75000000  0.52638051  1
  Li  Li132  1  0.00000000  0.75000000  0.77638051  1
  Li  Li133  1  0.00000000  0.25000000  0.52638051  1
  Li  Li134  1  0.50000000  0.75000000  0.22361949  1
  Li  Li135  1  0.50000000  0.25000000  0.47361949  1
  Li  Li136  1  0.50000000  0.75000000  0.72361949  1
  Li  Li137  1  0.50000000  0.25000000  0.97361949  1
  Li  Li138  1  0.00000000  0.75000000  0.27638051  1
  Li  Li139  1  0.00000000  0.25000000  0.02638051  1
  Li  Li140  1  0.50000000  0.25000000  0.27638051  1
  Li  Li141  1  0.50000000  0.75000000  0.02638051  1
  Li  Li142  1  0.00000000  0.25000000  0.72361949  1
  Li  Li143  1  0.00000000  0.75000000  0.97361949  1
  Te  Te144  1  0.00000000  0.25000000  0.37500000  1
  Te  Te145  1  0.00000000  0.75000000  0.62500000  1
  Te  Te146  1  0.50000000  0.25000000  0.62500000  1
  Te  Te147  1  0.50000000  0.75000000  0.37500000  1
  Te  Te148  1  0.50000000  0.75000000  0.87500000  1
  Te  Te149  1  0.50000000  0.25000000  0.12500000  1
  Te  Te150  1  0.00000000  0.75000000  0.12500000  1
  Te  Te151  1  0.00000000  0.25000000  0.87500000  1
  Te  Te152  1  0.34098491  -0.00000000  0.25000000  1
  Te  Te153  1  0.15901509  0.00000000  0.75000000  1
  Te  Te154  1  0.25000000  0.09098491  0.50000000  1
  Te  Te155  1  0.25000000  0.90901509  -0.00000000  1
  Te  Te156  1  0.65901509  -0.00000000  0.75000000  1
  Te  Te157  1  0.84098491  0.00000000  0.25000000  1
  Te  Te158  1  0.75000000  0.90901509  0.50000000  1
  Te  Te159  1  0.75000000  0.09098491  0.00000000  1
  Te  Te160  1  0.84098491  0.50000000  0.75000000  1
  Te  Te161  1  0.65901509  0.50000000  0.25000000  1
  Te  Te162  1  0.75000000  0.59098491  0.00000000  1
  Te  Te163  1  0.75000000  0.40901509  0.50000000  1
  Te  Te164  1  0.15901509  0.50000000  0.25000000  1
  Te  Te165  1  0.34098491  0.50000000  0.75000000  1
  Te  Te166  1  0.25000000  0.40901509  0.00000000  1
  Te  Te167  1  0.25000000  0.59098491  0.50000000  1
