# generated using pymatgen
data_LiF
_symmetry_space_group_name_H-M   'P 1'
_cell_length_a   12.26356441
_cell_length_b   12.26356441
_cell_length_c   7.11574547
_cell_angle_alpha   90.00000000
_cell_angle_beta   90.00000000
_cell_angle_gamma   90.00000000
_symmetry_Int_Tables_number   1
_chemical_formula_structural   LiF
_chemical_formula_sum   'Li32 F32'
_cell_volume   1070.17262559
_cell_formula_units_Z   32
loop_
 _symmetry_equiv_pos_site_id
 _symmetry_equiv_pos_as_xyz
  1  'x, y, z'
loop_
 _atom_site_type_symbol
 _atom_site_label
 _atom_site_symmetry_multiplicity
 _atom_site_fract_x
 _atom_site_fract_y
 _atom_site_fract_z
 _atom_site_occupancy
  F  F0  1  0.63559105  0.33327162  0.22427054  1
  F  F1  1  -0.13559105  -0.33327162  0.72427054  1
  F  F2  1  -0.08327162  1.38559105  0.47427054  1
  F  F3  1  0.58327162  -0.38559105  0.97427054  1
  F  F4  1  -0.13559105  0.33327162  -0.22427054  1
  F  F5  1  0.63559105  -0.33327162  0.27572946  1
  F  F6  1  0.58327162  1.38559105  0.52572946  1
  F  F7  1  -0.08327162  -0.38559105  0.02572946  1
  F  F8  1  -0.63559105  -0.33327162  -0.22427054  1
  F  F9  1  1.13559105  0.33327162  0.27572946  1
  F  F10  1  1.08327162  -0.38559105  0.52572946  1
  F  F11  1  0.41672838  1.38559105  0.02572946  1
  F  F12  1  1.13559105  -0.33327162  0.22427054  1
  F  F13  1  -0.63559105  0.33327162  0.72427054  1
  F  F14  1  0.41672838  -0.38559105  0.47427054  1
  F  F15  1  1.08327162  1.38559105  0.97427054  1
  F  F16  1  1.13559105  0.83327162  0.72427054  1
  F  F17  1  0.36440895  0.16672838  1.22427054  1
  F  F18  1  0.41672838  1.88559105  0.97427054  1
  F  F19  1  1.08327162  0.11440895  1.47427054  1
  F  F20  1  0.36440895  0.83327162  0.27572946  1
  F  F21  1  1.13559105  0.16672838  0.77572946  1
  F  F22  1  1.08327162  1.88559105  1.02572946  1
  F  F23  1  0.41672838  0.11440895  0.52572946  1
  F  F24  1  -0.13559105  0.16672838  0.27572946  1
  F  F25  1  1.63559105  0.83327162  0.77572946  1
  F  F26  1  1.58327162  0.11440895  1.02572946  1
  F  F27  1  0.91672838  1.88559105  0.52572946  1
  F  F28  1  1.63559105  0.16672838  0.72427054  1
  F  F29  1  -0.13559105  0.83327162  1.22427054  1
  F  F30  1  0.91672838  0.11440895  0.97427054  1
  F  F31  1  1.58327162  1.88559105  1.47427054  1
  Li  Li32  1  0.00000000  0.25000000  0.37500000  1
  Li  Li33  1  0.00000000  0.75000000  0.62500000  1
  Li  Li34  1  0.50000000  0.25000000  0.62500000  1
  Li  Li35  1  0.50000000  0.75000000  0.37500000  1
  Li  Li36  1  0.50000000  0.75000000  0.87500000  1
  Li  Li37  1  0.50000000  0.25000000  0.12500000  1
  Li  Li38  1  0.00000000  0.75000000  0.12500000  1
  Li  Li39  1  0.00000000  0.25000000  0.87500000  1
  Li  Li40  1  0.13719350  0.00000000  0.25000000  1
  Li  Li41  1  0.36280650  0.00000000  0.75000000  1
  Li  Li42  1  0.25000000  0.88719350  0.50000000  1
  Li  Li43  1  0.25000000  0.11280650  0.00000000  1
  Li  Li44  1  0.86280650  0.00000000  0.75000000  1
  Li  Li45  1  0.63719350  0.00000000  0.25000000  1
  Li  Li46  1  0.75000000  0.11280650  0.50000000  1
  Li  Li47  1  0.75000000  0.88719350  0.00000000  1
  Li  Li48  1  0.63719350  0.50000000  0.75000000  1
  Li  Li49  1  0.86280650  0.50000000  0.25000000  1
  Li  Li50  1  0.75000000  0.38719350  0.00000000  1
  Li  Li51  1  0.75000000  0.61280650  0.50000000  1
  Li  Li52  1  0.36280650  0.50000000  0.25000000  1
  Li  Li53  1  0.13719350  0.50000000  0.75000000  1
  Li  Li54  1  0.25000000  0.61280650  0.00000000  1
  Li  Li55  1  0.25000000  0.38719350  0.50000000  1
  Li  Li56  1  0.00000000  0.25000000  0.12500000  1
  Li  Li57  1  0.00000000  0.75000000  0.37500000  1
  Li  Li58  1  0.00000000  0.75000000  0.87500000  1
  Li  Li59  1  0.00000000  0.25000000  0.62500000  1
  Li  Li60  1  0.50000000  0.75000000  0.62500000  1
  Li  Li61  1  0.50000000  0.25000000  0.87500000  1
  Li  Li62  1  0.50000000  0.25000000  0.37500000  1
  Li  Li63  1  0.50000000  0.75000000  0.12500000  1
