# generated using pymatgen
data_Li2Ca3F8
_symmetry_space_group_name_H-M   'P 1'
_cell_length_a   8.91290413
_cell_length_b   8.91290413
_cell_length_c   22.07322780
_cell_angle_alpha   90.00000000
_cell_angle_beta   90.00000000
_cell_angle_gamma   90.00000000
_symmetry_Int_Tables_number   1
_chemical_formula_structural   Li2Ca3F8
_chemical_formula_sum   'Li16 Ca24 F64'
_cell_volume   1753.49412580
_cell_formula_units_Z   8
loop_
 _symmetry_equiv_pos_site_id
 _symmetry_equiv_pos_as_xyz
  1  'x, y, z'
loop_
 _atom_site_type_symbol
 _atom_site_label
 _atom_site_symmetry_multiplicity
 _atom_site_fract_x
 _atom_site_fract_y
 _atom_site_fract_z
 _atom_site_occupancy
  Ca  Ca0  1  0.00000000  0.25000000  0.12500000  1
  Ca  Ca1  1  0.00000000  0.75000000  0.37500000  1
  Ca  Ca2  1  0.00000000  0.75000000  0.87500000  1
  Ca  Ca3  1  0.00000000  0.25000000  0.62500000  1
  Ca  Ca4  1  0.50000000  0.75000000  0.62500000  1
  Ca  Ca5  1  0.50000000  0.25000000  0.87500000  1
  Ca  Ca6  1  0.50000000  0.25000000  0.37500000  1
  Ca  Ca7  1  0.50000000  0.75000000  0.12500000  1
  Ca  Ca8  1  0.00000000  0.00000000  0.00000000  1
  Ca  Ca9  1  0.50000000  0.00000000  0.50000000  1
  Ca  Ca10  1  0.25000000  0.75000000  0.25000000  1
  Ca  Ca11  1  0.25000000  0.25000000  0.75000000  1
  Ca  Ca12  1  0.50000000  0.00000000  0.00000000  1
  Ca  Ca13  1  0.00000000  0.00000000  0.50000000  1
  Ca  Ca14  1  0.25000000  0.75000000  0.75000000  1
  Ca  Ca15  1  0.25000000  0.25000000  0.25000000  1
  Ca  Ca16  1  0.50000000  0.50000000  0.50000000  1
  Ca  Ca17  1  0.00000000  0.50000000  0.00000000  1
  Ca  Ca18  1  0.75000000  0.25000000  0.75000000  1
  Ca  Ca19  1  0.75000000  0.75000000  0.25000000  1
  Ca  Ca20  1  0.00000000  0.50000000  0.50000000  1
  Ca  Ca21  1  0.50000000  0.50000000  0.00000000  1
  Ca  Ca22  1  0.75000000  0.25000000  0.25000000  1
  Ca  Ca23  1  0.75000000  0.75000000  0.75000000  1
  F  F24  1  0.73457078  0.00000000  0.25000000  1
  F  F25  1  0.76542922  0.00000000  0.75000000  1
  F  F26  1  0.25000000  0.48457078  0.50000000  1
  F  F27  1  0.25000000  0.51542922  0.00000000  1
  F  F28  1  0.26542922  0.00000000  0.75000000  1
  F  F29  1  0.23457078  0.00000000  0.25000000  1
  F  F30  1  0.75000000  0.51542922  0.50000000  1
  F  F31  1  0.75000000  0.48457078  0.00000000  1
  F  F32  1  0.23457078  0.50000000  0.75000000  1
  F  F33  1  0.26542922  0.50000000  0.25000000  1
  F  F34  1  0.75000000  0.98457078  0.00000000  1
  F  F35  1  0.75000000  0.01542922  0.50000000  1
  F  F36  1  0.76542922  0.50000000  0.25000000  1
  F  F37  1  0.73457078  0.50000000  0.75000000  1
  F  F38  1  0.25000000  0.01542922  -0.00000000  1
  F  F39  1  0.25000000  0.98457078  0.50000000  1
  F  F40  1  0.00000000  0.25000000  0.89319176  1
  F  F41  1  0.00000000  0.75000000  0.14319176  1
  F  F42  1  0.50000000  0.25000000  0.10680824  1
  F  F43  1  0.50000000  0.75000000  0.85680824  1
  F  F44  1  0.00000000  0.75000000  0.10680824  1
  F  F45  1  0.00000000  0.25000000  0.85680824  1
  F  F46  1  0.50000000  0.75000000  0.89319176  1
  F  F47  1  0.50000000  0.25000000  0.14319176  1
  F  F48  1  0.50000000  0.75000000  0.39319176  1
  F  F49  1  0.50000000  0.25000000  0.64319176  1
  F  F50  1  0.00000000  0.75000000  0.60680824  1
  F  F51  1  0.00000000  0.25000000  0.35680824  1
  F  F52  1  0.50000000  0.25000000  0.60680824  1
  F  F53  1  0.50000000  0.75000000  0.35680824  1
  F  F54  1  0.00000000  0.25000000  0.39319176  1
  F  F55  1  0.00000000  0.75000000  0.64319176  1
  F  F56  1  0.66101155  0.07484166  0.35171934  1
  F  F57  1  -0.16101155  -0.07484166  0.85171934  1
  F  F58  1  0.17515834  1.41101155  0.60171934  1
  F  F59  1  0.32484166  -0.41101155  1.10171934  1
  F  F60  1  -0.16101155  0.07484166  -0.35171934  1
  F  F61  1  0.66101155  -0.07484166  0.14828066  1
  F  F62  1  0.32484166  1.41101155  0.39828066  1
  F  F63  1  0.17515834  -0.41101155  -0.10171934  1
  F  F64  1  -0.66101155  -0.07484166  -0.35171934  1
  F  F65  1  1.16101155  0.07484166  0.14828066  1
  F  F66  1  0.82484166  -0.41101155  0.39828066  1
  F  F67  1  0.67515834  1.41101155  -0.10171934  1
  F  F68  1  1.16101155  -0.07484166  0.35171934  1
  F  F69  1  -0.66101155  0.07484166  0.85171934  1
  F  F70  1  0.67515834  -0.41101155  0.60171934  1
  F  F71  1  0.82484166  1.41101155  1.10171934  1
  F  F72  1  1.16101155  0.57484166  0.85171934  1
  F  F73  1  0.33898845  0.42515834  1.35171934  1
  F  F74  1  0.67515834  1.91101155  1.10171934  1
  F  F75  1  0.82484166  0.08898845  1.60171934  1
  F  F76  1  0.33898845  0.57484166  0.14828066  1
  F  F77  1  1.16101155  0.42515834  0.64828066  1
  F  F78  1  0.82484166  1.91101155  0.89828066  1
  F  F79  1  0.67515834  0.08898845  0.39828066  1
  F  F80  1  -0.16101155  0.42515834  0.14828066  1
  F  F81  1  1.66101155  0.57484166  0.64828066  1
  F  F82  1  1.32484166  0.08898845  0.89828066  1
  F  F83  1  1.17515834  1.91101155  0.39828066  1
  F  F84  1  1.66101155  0.42515834  0.85171934  1
  F  F85  1  -0.16101155  0.57484166  1.35171934  1
  F  F86  1  1.17515834  0.08898845  1.10171934  1
  F  F87  1  1.32484166  1.91101155  1.60171934  1
  Li  Li88  1  0.02287956  0.00000000  0.25000000  1
  Li  Li89  1  0.47712044  0.00000000  0.75000000  1
  Li  Li90  1  0.25000000  0.77287956  0.50000000  1
  Li  Li91  1  0.25000000  0.22712044  0.00000000  1
  Li  Li92  1  0.97712044  0.00000000  0.75000000  1
  Li  Li93  1  0.52287956  0.00000000  0.25000000  1
  Li  Li94  1  0.75000000  0.22712044  0.50000000  1
  Li  Li95  1  0.75000000  0.77287956  0.00000000  1
  Li  Li96  1  0.52287956  0.50000000  0.75000000  1
  Li  Li97  1  0.97712044  0.50000000  0.25000000  1
  Li  Li98  1  0.75000000  0.27287956  0.00000000  1
  Li  Li99  1  0.75000000  0.72712044  0.50000000  1
  Li  Li100  1  0.47712044  0.50000000  0.25000000  1
  Li  Li101  1  0.02287956  0.50000000  0.75000000  1
  Li  Li102  1  0.25000000  0.72712044  0.00000000  1
  Li  Li103  1  0.25000000  0.27287956  0.50000000  1
