# generated using pymatgen
data_Li2Ca3F8
_symmetry_space_group_name_H-M   'P 1'
_cell_length_a   17.98490054
_cell_length_b   17.98490054
_cell_length_c   5.84643163
_cell_angle_alpha   90.00000000
_cell_angle_beta   90.00000000
_cell_angle_gamma   90.00000000
_symmetry_Int_Tables_number   1
_chemical_formula_structural   Li2Ca3F8
_chemical_formula_sum   'Li16 Ca24 F64'
_cell_volume   1891.06717579
_cell_formula_units_Z   8
loop_
 _symmetry_equiv_pos_site_id
 _symmetry_equiv_pos_as_xyz
  1  'x, y, z'
loop_
 _atom_site_type_symbol
 _atom_site_label
 _atom_site_symmetry_multiplicity
 _atom_site_fract_x
 _atom_site_fract_y
 _atom_site_fract_z
 _atom_site_occupancy
  Ca  Ca0  1  0.12355747  -0.00000000  0.25000000  1
  Ca  Ca1  1  0.37644253  -0.00000000  0.75000000  1
  Ca  Ca2  1  0.25000000  0.87355747  0.50000000  1
  Ca  Ca3  1  0.25000000  0.12644253  0.00000000  1
  Ca  Ca4  1  0.87644253  0.00000000  0.75000000  1
  Ca  Ca5  1  0.62355747  -0.00000000  0.25000000  1
  Ca  Ca6  1  0.75000000  0.12644253  0.50000000  1
  Ca  Ca7  1  0.75000000  0.87355747  0.00000000  1
  Ca  Ca8  1  0.62355747  0.50000000  0.75000000  1
  Ca  Ca9  1  0.87644253  0.50000000  0.25000000  1
  Ca  Ca10  1  0.75000000  0.37355747  -0.00000000  1
  Ca  Ca11  1  0.75000000  0.62644253  0.50000000  1
  Ca  Ca12  1  0.37644253  0.50000000  0.25000000  1
  Ca  Ca13  1  0.12355747  0.50000000  0.75000000  1
  Ca  Ca14  1  0.25000000  0.62644253  0.00000000  1
  Ca  Ca15  1  0.25000000  0.37355747  0.50000000  1
  Ca  Ca16  1  0.00000000  0.25000000  0.12500000  1
  Ca  Ca17  1  0.00000000  0.75000000  0.37500000  1
  Ca  Ca18  1  0.00000000  0.75000000  0.87500000  1
  Ca  Ca19  1  0.00000000  0.25000000  0.62500000  1
  Ca  Ca20  1  0.50000000  0.75000000  0.62500000  1
  Ca  Ca21  1  0.50000000  0.25000000  0.87500000  1
  Ca  Ca22  1  0.50000000  0.25000000  0.37500000  1
  Ca  Ca23  1  0.50000000  0.75000000  0.12500000  1
  F  F24  1  0.47770424  0.43061881  0.69784368  1
  F  F25  1  0.02229576  -0.43061881  1.19784368  1
  F  F26  1  -0.18061881  1.22770424  0.94784368  1
  F  F27  1  0.68061881  -0.22770424  1.44784368  1
  F  F28  1  0.02229576  0.43061881  -0.69784368  1
  F  F29  1  0.47770424  -0.43061881  -0.19784368  1
  F  F30  1  0.68061881  1.22770424  0.05215632  1
  F  F31  1  -0.18061881  -0.22770424  -0.44784368  1
  F  F32  1  -0.47770424  -0.43061881  -0.69784368  1
  F  F33  1  0.97770424  0.43061881  -0.19784368  1
  F  F34  1  1.18061881  -0.22770424  0.05215632  1
  F  F35  1  0.31938119  1.22770424  -0.44784368  1
  F  F36  1  0.97770424  -0.43061881  0.69784368  1
  F  F37  1  -0.47770424  0.43061881  1.19784368  1
  F  F38  1  0.31938119  -0.22770424  0.94784368  1
  F  F39  1  1.18061881  1.22770424  1.44784368  1
  F  F40  1  0.97770424  0.93061881  1.19784368  1
  F  F41  1  0.52229576  0.06938119  1.69784368  1
  F  F42  1  0.31938119  1.72770424  1.44784368  1
  F  F43  1  1.18061881  0.27229576  1.94784368  1
  F  F44  1  0.52229576  0.93061881  -0.19784368  1
  F  F45  1  0.97770424  0.06938119  0.30215632  1
  F  F46  1  1.18061881  1.72770424  0.55215632  1
  F  F47  1  0.31938119  0.27229576  0.05215632  1
  F  F48  1  0.02229576  0.06938119  -0.19784368  1
  F  F49  1  1.47770424  0.93061881  0.30215632  1
  F  F50  1  1.68061881  0.27229576  0.55215632  1
  F  F51  1  0.81938119  1.72770424  0.05215632  1
  F  F52  1  1.47770424  0.06938119  1.19784368  1
  F  F53  1  0.02229576  0.93061881  1.69784368  1
  F  F54  1  0.81938119  0.27229576  1.44784368  1
  F  F55  1  1.68061881  1.72770424  1.94784368  1
  F  F56  1  0.56787262  0.55578420  0.08995559  1
  F  F57  1  0.93212738  0.44421580  0.58995559  1
  F  F58  1  0.69421580  0.31787262  0.33995559  1
  F  F59  1  0.80578420  0.68212738  0.83995559  1
  F  F60  1  0.93212738  0.55578420  0.91004441  1
  F  F61  1  0.56787262  0.44421580  0.41004441  1
  F  F62  1  0.80578420  0.31787262  0.66004441  1
  F  F63  1  0.69421580  0.68212738  0.16004441  1
  F  F64  1  0.43212738  0.44421580  0.91004441  1
  F  F65  1  0.06787262  0.55578420  0.41004441  1
  F  F66  1  0.30578420  0.68212738  0.66004441  1
  F  F67  1  0.19421580  0.31787262  0.16004441  1
  F  F68  1  0.06787262  0.44421580  0.08995559  1
  F  F69  1  0.43212738  0.55578420  0.58995559  1
  F  F70  1  0.19421580  0.68212738  0.33995559  1
  F  F71  1  0.30578420  0.31787262  0.83995559  1
  F  F72  1  0.06787262  0.05578420  0.58995559  1
  F  F73  1  0.43212738  0.94421580  0.08995559  1
  F  F74  1  0.19421580  0.81787262  0.83995559  1
  F  F75  1  0.30578420  0.18212738  0.33995559  1
  F  F76  1  0.43212738  0.05578420  0.41004441  1
  F  F77  1  0.06787262  0.94421580  0.91004441  1
  F  F78  1  0.30578420  0.81787262  0.16004441  1
  F  F79  1  0.19421580  0.18212738  0.66004441  1
  F  F80  1  0.93212738  0.94421580  0.41004441  1
  F  F81  1  0.56787262  0.05578420  0.91004441  1
  F  F82  1  0.80578420  0.18212738  0.16004441  1
  F  F83  1  0.69421580  0.81787262  0.66004441  1
  F  F84  1  0.56787262  0.94421580  0.58995559  1
  F  F85  1  0.93212738  0.05578420  0.08995559  1
  F  F86  1  0.69421580  0.18212738  0.83995559  1
  F  F87  1  0.80578420  0.81787262  0.33995559  1
  Li  Li88  1  0.93653287  0.00000000  0.25000000  1
  Li  Li89  1  0.56346713  -0.00000000  0.75000000  1
  Li  Li90  1  0.25000000  0.68653287  0.50000000  1
  Li  Li91  1  0.25000000  0.31346713  0.00000000  1
  Li  Li92  1  0.06346713  -0.00000000  0.75000000  1
  Li  Li93  1  0.43653287  0.00000000  0.25000000  1
  Li  Li94  1  0.75000000  0.31346713  0.50000000  1
  Li  Li95  1  0.75000000  0.68653287  0.00000000  1
  Li  Li96  1  0.43653287  0.50000000  0.75000000  1
  Li  Li97  1  0.06346713  0.50000000  0.25000000  1
  Li  Li98  1  0.75000000  0.18653287  0.00000000  1
  Li  Li99  1  0.75000000  0.81346713  0.50000000  1
  Li  Li100  1  0.56346713  0.50000000  0.25000000  1
  Li  Li101  1  0.93653287  0.50000000  0.75000000  1
  Li  Li102  1  0.25000000  0.81346713  0.00000000  1
  Li  Li103  1  0.25000000  0.18653287  0.50000000  1
