# generated using pymatgen
data_Li2LaTiOF
_symmetry_space_group_name_H-M   'P 1'
_cell_length_a   3.23695170
_cell_length_b   3.02824510
_cell_length_c   5.96527040
_cell_angle_alpha   114.16756260
_cell_angle_beta   106.57226492
_cell_angle_gamma   106.65504707
_symmetry_Int_Tables_number   1
_chemical_formula_structural   Li2LaTiOF
_chemical_formula_sum   'Li2 La1 Ti1 O1 F1'
_cell_volume   45.36682974
_cell_formula_units_Z   1
loop_
 _symmetry_equiv_pos_site_id
 _symmetry_equiv_pos_as_xyz
  1  'x, y, z'
loop_
 _atom_site_type_symbol
 _atom_site_label
 _atom_site_symmetry_multiplicity
 _atom_site_fract_x
 _atom_site_fract_y
 _atom_site_fract_z
 _atom_site_occupancy
  F  F0  1  0.00000000  0.00000000  0.00000000  1
  O  O1  1  0.50000000  0.50000000  0.50000000  1
  Ti  Ti2  1  0.25000000  0.25000000  0.25000000  1
  Li  Li3  1  0.75000000  0.25000000  0.00000000  1
  Li  Li4  1  0.25000000  0.75000000  0.50000000  1
  La  La5  1  0.25778185  0.70758281  0.42566478  1
