# generated using pymatgen
data_Li2YP2Se
_symmetry_space_group_name_H-M   'P 1'
_cell_length_a   5.37436126
_cell_length_b   5.70846672
_cell_length_c   7.34109825
_cell_angle_alpha   94.03823961
_cell_angle_beta   98.79444634
_cell_angle_gamma   106.22000356
_symmetry_Int_Tables_number   1
_chemical_formula_structural   Li2YP2Se
_chemical_formula_sum   'Li4 Y2 P4 Se2'
_cell_volume   212.18890213
_cell_formula_units_Z   2
loop_
 _symmetry_equiv_pos_site_id
 _symmetry_equiv_pos_as_xyz
  1  'x, y, z'
loop_
 _atom_site_type_symbol
 _atom_site_label
 _atom_site_symmetry_multiplicity
 _atom_site_fract_x
 _atom_site_fract_y
 _atom_site_fract_z
 _atom_site_occupancy
  Se  Se0  1  0.00000000  0.00000000  0.00000000  1
  Se  Se1  1  0.33300000  0.66700000  0.25000000  1
  Y  Y2  1  0.66700000  0.33300000  0.50000000  1
  Y  Y3  1  0.00000000  0.00000000  0.75000000  1
  P  P4  1  0.11027262  0.79684543  0.86696301  1
  P  P5  1  0.63167863  0.04678838  0.10430150  1
  P  P6  1  0.52718450  0.89112425  0.67942347  1
  P  P7  1  0.66653782  0.63110498  0.45522749  1
  Li  Li8  1  0.24206756  0.47111844  0.27647561  1
  Li  Li9  1  0.73150997  0.38245408  0.97849584  1
  Li  Li10  1  0.94502470  0.05815827  0.51569272  1
  Li  Li11  1  0.32027394  0.65155781  0.57567420  1
