# generated using pymatgen
data_Li3Y2As4P3Se
_symmetry_space_group_name_H-M   'P 1'
_cell_length_a   5.53138888
_cell_length_b   5.68136758
_cell_length_c   7.04214827
_cell_angle_alpha   93.25531560
_cell_angle_beta   97.36978467
_cell_angle_gamma   103.41385669
_symmetry_Int_Tables_number   1
_chemical_formula_structural   Li3Y2As4P3Se
_chemical_formula_sum   'Li3 Y2 As4 P3 Se1'
_cell_volume   212.62909868
_cell_formula_units_Z   1
loop_
 _symmetry_equiv_pos_site_id
 _symmetry_equiv_pos_as_xyz
  1  'x, y, z'
loop_
 _atom_site_type_symbol
 _atom_site_label
 _atom_site_symmetry_multiplicity
 _atom_site_fract_x
 _atom_site_fract_y
 _atom_site_fract_z
 _atom_site_occupancy
  Se  Se0  1  0.12500000  0.00000000  0.25000000  1
  P  P1  1  0.00000000  0.00000000  0.00000000  1
  P  P2  1  0.37500000  0.00000000  0.25000000  1
  P  P3  1  0.25000000  0.25000000  0.25000000  1
  As  As4  1  0.00000000  0.25000000  0.12500000  1
  As  As5  1  0.97135489  0.54856885  0.76398421  1
  As  As6  1  0.08977544  0.34345520  0.00963254  1
  As  As7  1  0.86998401  0.49693607  0.50112120  1
  Li  Li8  1  0.63953321  0.76203314  0.59988262  1
  Li  Li9  1  0.03716860  0.74944155  0.71356016  1
  Li  Li10  1  0.87944354  0.34617410  0.33632279  1
  Y  Y11  1  0.74749426  0.13925543  0.31677522  1
  Y  Y12  1  0.09503847  0.45802436  0.46280734  1
