# generated using pymatgen
data_Li2Y2As2P3
_symmetry_space_group_name_H-M   'P 1'
_cell_length_a   3.83140054
_cell_length_b   4.08213706
_cell_length_c   6.57794163
_cell_angle_alpha   96.76604744
_cell_angle_beta   104.28688121
_cell_angle_gamma   115.51980601
_symmetry_Int_Tables_number   1
_chemical_formula_structural   Li2Y2As2P3
_chemical_formula_sum   'Li2 Y2 As2 P3'
_cell_volume   86.96702563
_cell_formula_units_Z   1
loop_
 _symmetry_equiv_pos_site_id
 _symmetry_equiv_pos_as_xyz
  1  'x, y, z'
loop_
 _atom_site_type_symbol
 _atom_site_label
 _atom_site_symmetry_multiplicity
 _atom_site_fract_x
 _atom_site_fract_y
 _atom_site_fract_z
 _atom_site_occupancy
  P  P0  1  0.00000000  0.00000000  0.00000000  1
  P  P1  1  0.33300000  0.66700000  0.25000000  1
  P  P2  1  0.66700000  0.33300000  0.50000000  1
  As  As3  1  0.00000000  0.00000000  0.75000000  1
  As  As4  1  0.90372453  0.92449005  0.37203130  1
  Li  Li5  1  0.42774413  0.18590200  0.69783380  1
  Li  Li6  1  0.05235181  0.94530493  0.47298663  1
  Y  Y7  1  0.98553333  0.39243989  0.49603251  1
  Y  Y8  1  0.25773463  0.24391405  0.97165647  1
