# generated using pymatgen
data_Li2Y2P2SeF6
_symmetry_space_group_name_H-M   'P 1'
_cell_length_a   5.40552351
_cell_length_b   5.38034721
_cell_length_c   5.83655994
_cell_angle_alpha   92.76737554
_cell_angle_beta   91.10411037
_cell_angle_gamma   93.39541676
_symmetry_Int_Tables_number   1
_chemical_formula_structural   Li2Y2P2SeF6
_chemical_formula_sum   'Li2 Y2 P2 Se1 F6'
_cell_volume   169.21085249
_cell_formula_units_Z   1
loop_
 _symmetry_equiv_pos_site_id
 _symmetry_equiv_pos_as_xyz
  1  'x, y, z'
loop_
 _atom_site_type_symbol
 _atom_site_label
 _atom_site_symmetry_multiplicity
 _atom_site_fract_x
 _atom_site_fract_y
 _atom_site_fract_z
 _atom_site_occupancy
  Se  Se0  1  0.00000000  0.00000000  0.00000000  1
  F  F1  1  0.50000000  0.50000000  0.50000000  1
  F  F2  1  0.50000000  0.50000000  0.00000000  1
  F  F3  1  0.50000000  0.00000000  0.50000000  1
  F  F4  1  0.00000000  0.50000000  0.50000000  1
  F  F5  1  0.92948334  0.24872613  0.46562054  1
  F  F6  1  0.70465603  0.34150182  0.39405227  1
  Y  Y7  1  0.79458686  0.54821050  0.36664870  1
  Y  Y8  1  0.11351490  0.10679668  0.92350058  1
  P  P9  1  0.08203286  0.61625483  0.44514871  1
  P  P10  1  0.51918781  0.00609967  0.32369089  1
  Li  Li11  1  0.88974753  0.96318377  0.53152731  1
  Li  Li12  1  0.66809461  0.55069468  0.10005692  1
