# generated using pymatgen
data_Li3Y2Al(P2Se)2
_symmetry_space_group_name_H-M   'P 1'
_cell_length_a   5.90732709
_cell_length_b   6.26106934
_cell_length_c   7.55346868
_cell_angle_alpha   93.08136677
_cell_angle_beta   96.71057621
_cell_angle_gamma   102.37662564
_symmetry_Int_Tables_number   1
_chemical_formula_structural   Li3Y2Al(P2Se)2
_chemical_formula_sum   'Li3 Y2 Al1 P4 Se2'
_cell_volume   270.11616981
_cell_formula_units_Z   1
loop_
 _symmetry_equiv_pos_site_id
 _symmetry_equiv_pos_as_xyz
  1  'x, y, z'
loop_
 _atom_site_type_symbol
 _atom_site_label
 _atom_site_symmetry_multiplicity
 _atom_site_fract_x
 _atom_site_fract_y
 _atom_site_fract_z
 _atom_site_occupancy
  Al  Al0  1  0.00000000  0.00000000  0.00000000  1
  Y  Y1  1  0.50000000  0.50000000  0.50000000  1
  Y  Y2  1  0.50000000  0.50000000  0.00000000  1
  P  P3  1  0.50000000  0.00000000  0.50000000  1
  P  P4  1  0.00000000  0.50000000  0.50000000  1
  P  P5  1  0.16491860  0.91945007  0.65027018  1
  P  P6  1  0.48641547  0.68438097  0.35674737  1
  Se  Se7  1  0.74407290  0.83061723  0.52389308  1
  Se  Se8  1  0.34464105  0.62270547  0.03836201  1
  Li  Li9  1  0.61842348  0.90235278  0.57779916  1
  Li  Li10  1  0.50614736  0.62548967  0.93731913  1
  Li  Li11  1  0.34943302  0.78546777  0.53055735  1
