# generated using pymatgen
data_Li2LaTiAlO
_symmetry_space_group_name_H-M   'P 1'
_cell_length_a   3.15471314
_cell_length_b   2.71876500
_cell_length_c   6.67001471
_cell_angle_alpha   108.78227200
_cell_angle_beta   102.78996441
_cell_angle_gamma   99.71388192
_symmetry_Int_Tables_number   1
_chemical_formula_structural   Li2LaTiAlO
_chemical_formula_sum   'Li2 La1 Ti1 Al1 O1'
_cell_volume   51.00210866
_cell_formula_units_Z   1
loop_
 _symmetry_equiv_pos_site_id
 _symmetry_equiv_pos_as_xyz
  1  'x, y, z'
loop_
 _atom_site_type_symbol
 _atom_site_label
 _atom_site_symmetry_multiplicity
 _atom_site_fract_x
 _atom_site_fract_y
 _atom_site_fract_z
 _atom_site_occupancy
  Al  Al0  1  0.00000000  0.00000000  0.00000000  1
  O  O1  1  0.50000000  0.50000000  0.50000000  1
  Li  Li2  1  0.50000000  0.50000000  0.00000000  1
  Li  Li3  1  0.50000000  0.00000000  0.50000000  1
  Ti  Ti4  1  0.00000000  0.50000000  0.50000000  1
  La  La5  1  0.07579700  0.26433790  0.45048761  1
