# generated using pymatgen
data_Li2Y2As4P3
_symmetry_space_group_name_H-M   'P 1'
_cell_length_a   4.06898496
_cell_length_b   4.27472172
_cell_length_c   6.65442768
_cell_angle_alpha   96.30931989
_cell_angle_beta   103.45474395
_cell_angle_gamma   114.89406645
_symmetry_Int_Tables_number   1
_chemical_formula_structural   Li2Y2As4P3
_chemical_formula_sum   'Li2 Y2 As4 P3'
_cell_volume   99.23559587
_cell_formula_units_Z   1
loop_
 _symmetry_equiv_pos_site_id
 _symmetry_equiv_pos_as_xyz
  1  'x, y, z'
loop_
 _atom_site_type_symbol
 _atom_site_label
 _atom_site_symmetry_multiplicity
 _atom_site_fract_x
 _atom_site_fract_y
 _atom_site_fract_z
 _atom_site_occupancy
  P  P0  1  0.12500000  0.12500000  0.12500000  1
  P  P1  1  0.50000000  0.50000000  0.50000000  1
  P  P2  1  0.25000000  0.25000000  0.25000000  1
  As  As3  1  0.75000000  0.75000000  0.75000000  1
  As  As4  1  0.41200712  0.44963234  0.21364958  1
  As  As5  1  0.90467799  0.14830869  0.02242979  1
  As  As6  1  0.10108915  0.76846010  0.67256147  1
  Li  Li7  1  0.20877330  0.07249927  0.95435768  1
  Li  Li8  1  0.05295624  0.38285909  0.89610288  1
  Y  Y9  1  0.15512989  0.57200935  0.70765660  1
  Y  Y10  1  0.44385986  0.28641740  0.22196391  1
