# generated using pymatgen
data_LiF
_symmetry_space_group_name_H-M   'P 1'
_cell_length_a   15.25553142
_cell_length_b   15.25553142
_cell_length_c   3.33099296
_cell_angle_alpha   90.00000000
_cell_angle_beta   90.00000000
_cell_angle_gamma   120.00000000
_symmetry_Int_Tables_number   1
_chemical_formula_structural   LiF
_chemical_formula_sum   'Li25 F25'
_cell_volume   671.36551302
_cell_formula_units_Z   25
loop_
 _symmetry_equiv_pos_site_id
 _symmetry_equiv_pos_as_xyz
  1  'x, y, z'
loop_
 _atom_site_type_symbol
 _atom_site_label
 _atom_site_symmetry_multiplicity
 _atom_site_fract_x
 _atom_site_fract_y
 _atom_site_fract_z
 _atom_site_occupancy
  F  F0  1  0.32235079  0.82136015  0.00000000  1
  F  F1  1  0.17863985  0.50099065  -0.00000000  1
  F  F2  1  0.49900935  0.67764921  0.00000000  1
  F  F3  1  0.82136015  0.32235079  0.00000000  1
  F  F4  1  0.50099065  0.17863985  0.00000000  1
  F  F5  1  0.67764921  0.49900935  0.00000000  1
  F  F6  1  0.42835763  0.33699756  0.18990197  1
  F  F7  1  0.66300244  0.09136007  0.18990197  1
  F  F8  1  0.90863993  0.57164237  0.18990197  1
  F  F9  1  0.42835763  0.33699756  0.81009803  1
  F  F10  1  0.66300244  0.09136007  0.81009803  1
  F  F11  1  0.90863993  0.57164237  0.81009803  1
  F  F12  1  0.33699756  0.42835763  0.81009803  1
  F  F13  1  0.09136007  0.66300244  0.81009803  1
  F  F14  1  0.57164237  0.90863993  0.81009803  1
  F  F15  1  0.33699756  0.42835763  0.18990197  1
  F  F16  1  0.09136007  0.66300244  0.18990197  1
  F  F17  1  0.57164237  0.90863993  0.18990197  1
  F  F18  1  0.33333333  0.66666667  0.00000000  1
  F  F19  1  0.66666667  0.33333333  0.00000000  1
  F  F20  1  0.76636707  0.00000000  0.50000000  1
  F  F21  1  0.00000000  0.76636707  0.50000000  1
  F  F22  1  0.23363293  0.23363293  0.50000000  1
  F  F23  1  0.33333333  0.66666667  0.50000000  1
  F  F24  1  0.66666667  0.33333333  0.50000000  1
  Li  Li25  1  0.31373508  0.10273121  0.00000000  1
  Li  Li26  1  0.89726879  0.21100387  -0.00000000  1
  Li  Li27  1  0.78899613  0.68626492  -0.00000000  1
  Li  Li28  1  0.10273121  0.31373508  0.00000000  1
  Li  Li29  1  0.21100387  0.89726879  -0.00000000  1
  Li  Li30  1  0.68626492  0.78899613  -0.00000000  1
  Li  Li31  1  0.19984400  0.94196332  0.50000000  1
  Li  Li32  1  0.05803668  0.25788068  0.50000000  1
  Li  Li33  1  0.74211932  0.80015600  0.50000000  1
  Li  Li34  1  0.94196332  0.19984400  0.50000000  1
  Li  Li35  1  0.25788068  0.05803668  0.50000000  1
  Li  Li36  1  0.80015600  0.74211932  0.50000000  1
  Li  Li37  1  0.68329246  0.89368940  0.77843363  1
  Li  Li38  1  -0.89368940  -0.21039694  0.77843363  1
  Li  Li39  1  0.21039694  -0.68329246  0.77843363  1
  Li  Li40  1  0.68329246  0.89368940  -0.77843363  1
  Li  Li41  1  -0.89368940  -0.21039694  -0.77843363  1
  Li  Li42  1  0.21039694  -0.68329246  -0.77843363  1
  Li  Li43  1  0.89368940  0.68329246  -0.77843363  1
  Li  Li44  1  -0.21039694  -0.89368940  -0.77843363  1
  Li  Li45  1  -0.68329246  0.21039694  -0.77843363  1
  Li  Li46  1  0.89368940  0.68329246  0.77843363  1
  Li  Li47  1  -0.21039694  -0.89368940  0.77843363  1
  Li  Li48  1  -0.68329246  0.21039694  0.77843363  1
  Li  Li49  1  0.00000000  0.00000000  0.50000000  1
