# generated using pymatgen
data_LiF
_symmetry_space_group_name_H-M   'P 1'
_cell_length_a   9.15487569
_cell_length_b   9.15487569
_cell_length_c   20.49449015
_cell_angle_alpha   90.00000000
_cell_angle_beta   90.00000000
_cell_angle_gamma   120.00000000
_symmetry_Int_Tables_number   1
_chemical_formula_structural   LiF
_chemical_formula_sum   'Li78 F78'
_cell_volume   1487.55370246
_cell_formula_units_Z   78
loop_
 _symmetry_equiv_pos_site_id
 _symmetry_equiv_pos_as_xyz
  1  'x, y, z'
loop_
 _atom_site_type_symbol
 _atom_site_label
 _atom_site_symmetry_multiplicity
 _atom_site_fract_x
 _atom_site_fract_y
 _atom_site_fract_z
 _atom_site_occupancy
  F  F0  1  0.82554220  0.84640852  0.28397393  1
  F  F1  1  0.15359148  0.97913368  0.28397393  1
  F  F2  1  0.02086632  0.17445780  0.28397393  1
  F  F3  1  0.84640852  0.82554220  0.21602607  1
  F  F4  1  0.97913368  0.15359148  0.21602607  1
  F  F5  1  0.17445780  0.02086632  0.21602607  1
  F  F6  1  0.17445780  0.15359148  0.71602607  1
  F  F7  1  0.84640852  0.02086632  0.71602607  1
  F  F8  1  0.97913368  0.82554220  0.71602607  1
  F  F9  1  0.15359148  0.17445780  0.78397393  1
  F  F10  1  0.02086632  0.84640852  0.78397393  1
  F  F11  1  0.82554220  0.97913368  0.78397393  1
  F  F12  1  0.49220887  0.17974186  0.61730727  1
  F  F13  1  0.82025814  0.31246701  0.61730727  1
  F  F14  1  0.68753299  0.50779113  0.61730727  1
  F  F15  1  0.51307519  0.15887554  0.54935940  1
  F  F16  1  0.64580034  0.48692481  0.54935940  1
  F  F17  1  0.84112446  0.35419966  0.54935940  1
  F  F18  1  0.84112446  0.48692481  0.04935940  1
  F  F19  1  0.51307519  0.35419966  0.04935940  1
  F  F20  1  0.64580034  0.15887554  0.04935940  1
  F  F21  1  0.82025814  0.50779113  0.11730727  1
  F  F22  1  0.68753299  0.17974186  0.11730727  1
  F  F23  1  0.49220887  0.31246701  0.11730727  1
  F  F24  1  0.15887554  0.51307519  0.95064060  1
  F  F25  1  0.48692481  0.64580034  0.95064060  1
  F  F26  1  0.35419966  0.84112446  0.95064060  1
  F  F27  1  0.17974186  0.49220887  0.88269273  1
  F  F28  1  0.31246701  0.82025814  0.88269273  1
  F  F29  1  0.50779113  0.68753299  0.88269273  1
  F  F30  1  0.50779113  0.82025814  0.38269273  1
  F  F31  1  0.17974186  0.68753299  0.38269273  1
  F  F32  1  0.31246701  0.49220887  0.38269273  1
  F  F33  1  0.48692481  0.84112446  0.45064060  1
  F  F34  1  0.35419966  0.51307519  0.45064060  1
  F  F35  1  0.15887554  0.64580034  0.45064060  1
  F  F36  1  0.50000000  0.00000000  -0.00000000  1
  F  F37  1  0.00000000  0.50000000  0.00000000  1
  F  F38  1  0.50000000  0.50000000  -0.00000000  1
  F  F39  1  0.00000000  0.50000000  0.50000000  1
  F  F40  1  0.50000000  0.00000000  0.50000000  1
  F  F41  1  0.50000000  0.50000000  0.50000000  1
  F  F42  1  0.16666667  0.33333333  0.33333333  1
  F  F43  1  0.66666667  0.83333333  0.33333333  1
  F  F44  1  0.16666667  0.83333333  0.33333333  1
  F  F45  1  0.66666667  0.83333333  0.83333333  1
  F  F46  1  0.16666667  0.33333333  0.83333333  1
  F  F47  1  0.16666667  0.83333333  0.83333333  1
  F  F48  1  0.83333333  0.66666667  0.66666667  1
  F  F49  1  0.33333333  0.16666667  0.66666667  1
  F  F50  1  0.83333333  0.16666667  0.66666667  1
  F  F51  1  0.33333333  0.16666667  0.16666667  1
  F  F52  1  0.83333333  0.66666667  0.16666667  1
  F  F53  1  0.83333333  0.16666667  0.16666667  1
  F  F54  1  0.00000000  0.00000000  0.00000000  1
  F  F55  1  0.00000000  0.00000000  0.50000000  1
  F  F56  1  0.66666667  0.33333333  0.33333333  1
  F  F57  1  0.66666667  0.33333333  0.83333333  1
  F  F58  1  0.33333333  0.66666667  0.66666667  1
  F  F59  1  0.33333333  0.66666667  0.16666667  1
  F  F60  1  0.84211836  0.00000000  0.25000000  1
  F  F61  1  0.00000000  0.84211836  0.25000000  1
  F  F62  1  0.15788164  0.15788164  0.25000000  1
  F  F63  1  0.15788164  0.00000000  0.75000000  1
  F  F64  1  0.00000000  0.15788164  0.75000000  1
  F  F65  1  0.84211836  0.84211836  0.75000000  1
  F  F66  1  0.50878503  0.33333333  0.58333333  1
  F  F67  1  0.66666667  0.17545170  0.58333333  1
  F  F68  1  0.82454830  0.49121497  0.58333333  1
  F  F69  1  0.82454830  0.33333333  0.08333333  1
  F  F70  1  0.66666667  0.49121497  0.08333333  1
  F  F71  1  0.50878503  0.17545170  0.08333333  1
  F  F72  1  0.17545170  0.66666667  0.91666667  1
  F  F73  1  0.33333333  0.50878503  0.91666667  1
  F  F74  1  0.49121497  0.82454830  0.91666667  1
  F  F75  1  0.49121497  0.66666667  0.41666667  1
  F  F76  1  0.33333333  0.82454830  0.41666667  1
  F  F77  1  0.17545170  0.50878503  0.41666667  1
  Li  Li78  1  0.57095702  0.00000000  0.25000000  1
  Li  Li79  1  0.00000000  0.57095702  0.25000000  1
  Li  Li80  1  0.42904298  0.42904298  0.25000000  1
  Li  Li81  1  0.42904298  0.00000000  0.75000000  1
  Li  Li82  1  0.00000000  0.42904298  0.75000000  1
  Li  Li83  1  0.57095702  0.57095702  0.75000000  1
  Li  Li84  1  0.23762369  0.33333333  0.58333333  1
  Li  Li85  1  0.66666667  0.90429036  0.58333333  1
  Li  Li86  1  0.09570964  0.76237631  0.58333333  1
  Li  Li87  1  0.09570964  0.33333333  0.08333333  1
  Li  Li88  1  0.66666667  0.76237631  0.08333333  1
  Li  Li89  1  0.23762369  0.90429036  0.08333333  1
  Li  Li90  1  0.90429036  0.66666667  0.91666667  1
  Li  Li91  1  0.33333333  0.23762369  0.91666667  1
  Li  Li92  1  0.76237631  0.09570964  0.91666667  1
  Li  Li93  1  0.76237631  0.66666667  0.41666667  1
  Li  Li94  1  0.33333333  0.09570964  0.41666667  1
  Li  Li95  1  0.90429036  0.23762369  0.41666667  1
  Li  Li96  1  0.67749845  0.43836972  0.94939976  1
  Li  Li97  1  -0.43836972  0.23912873  0.94939976  1
  Li  Li98  1  -0.23912873  -0.67749845  0.94939976  1
  Li  Li99  1  0.43836972  0.67749845  -0.44939976  1
  Li  Li100  1  0.23912873  -0.43836972  -0.44939976  1
  Li  Li101  1  -0.67749845  -0.23912873  -0.44939976  1
  Li  Li102  1  -0.67749845  -0.43836972  -0.94939976  1
  Li  Li103  1  0.43836972  -0.23912873  -0.94939976  1
  Li  Li104  1  0.23912873  0.67749845  -0.94939976  1
  Li  Li105  1  -0.43836972  -0.67749845  1.44939976  1
  Li  Li106  1  -0.23912873  0.43836972  1.44939976  1
  Li  Li107  1  0.67749845  0.23912873  1.44939976  1
  Li  Li108  1  1.34416511  0.77170305  1.28273310  1
  Li  Li109  1  0.22829695  0.57246206  1.28273310  1
  Li  Li110  1  0.42753794  -0.34416511  1.28273310  1
  Li  Li111  1  1.10503638  1.01083178  -0.11606643  1
  Li  Li112  1  0.90579540  -0.10503638  -0.11606643  1
  Li  Li113  1  -0.01083178  0.09420460  -0.11606643  1
  Li  Li114  1  -0.01083178  -0.10503638  -0.61606643  1
  Li  Li115  1  1.10503638  0.09420460  -0.61606643  1
  Li  Li116  1  0.90579540  1.01083178  -0.61606643  1
  Li  Li117  1  0.22829695  -0.34416511  1.78273310  1
  Li  Li118  1  0.42753794  0.77170305  1.78273310  1
  Li  Li119  1  1.34416511  0.57246206  1.78273310  1
  Li  Li120  1  1.01083178  1.10503638  1.61606643  1
  Li  Li121  1  -0.10503638  0.90579540  1.61606643  1
  Li  Li122  1  0.09420460  -0.01083178  1.61606643  1
  Li  Li123  1  0.77170305  1.34416511  0.21726690  1
  Li  Li124  1  0.57246206  0.22829695  0.21726690  1
  Li  Li125  1  -0.34416511  0.42753794  0.21726690  1
  Li  Li126  1  -0.34416511  0.22829695  -0.28273310  1
  Li  Li127  1  0.77170305  0.42753794  -0.28273310  1
  Li  Li128  1  0.57246206  1.34416511  -0.28273310  1
  Li  Li129  1  -0.10503638  -0.01083178  2.11606643  1
  Li  Li130  1  0.09420460  1.10503638  2.11606643  1
  Li  Li131  1  1.01083178  0.90579540  2.11606643  1
  Li  Li132  1  0.29473579  0.00000000  0.25000000  1
  Li  Li133  1  0.00000000  0.29473579  0.25000000  1
  Li  Li134  1  0.70526421  0.70526421  0.25000000  1
  Li  Li135  1  0.70526421  0.00000000  0.75000000  1
  Li  Li136  1  0.00000000  0.70526421  0.75000000  1
  Li  Li137  1  0.29473579  0.29473579  0.75000000  1
  Li  Li138  1  0.96140246  0.33333333  0.58333333  1
  Li  Li139  1  0.66666667  0.62806912  0.58333333  1
  Li  Li140  1  0.37193088  0.03859754  0.58333333  1
  Li  Li141  1  0.37193088  0.33333333  0.08333333  1
  Li  Li142  1  0.66666667  0.03859754  0.08333333  1
  Li  Li143  1  0.96140246  0.62806912  0.08333333  1
  Li  Li144  1  0.62806912  0.66666667  0.91666667  1
  Li  Li145  1  0.33333333  0.96140246  0.91666667  1
  Li  Li146  1  0.03859754  0.37193088  0.91666667  1
  Li  Li147  1  0.03859754  0.66666667  0.41666667  1
  Li  Li148  1  0.33333333  0.37193088  0.41666667  1
  Li  Li149  1  0.62806912  0.96140246  0.41666667  1
  Li  Li150  1  0.00000000  0.00000000  0.25000000  1
  Li  Li151  1  0.00000000  0.00000000  0.75000000  1
  Li  Li152  1  0.66666667  0.33333333  0.58333333  1
  Li  Li153  1  0.66666667  0.33333333  0.08333333  1
  Li  Li154  1  0.33333333  0.66666667  0.91666667  1
  Li  Li155  1  0.33333333  0.66666667  0.41666667  1
