# generated using pymatgen
data_Li4TeF2
_symmetry_space_group_name_H-M   'P 1'
_cell_length_a   13.86347376
_cell_length_b   13.86347376
_cell_length_c   18.39068080
_cell_angle_alpha   90.00000000
_cell_angle_beta   90.00000000
_cell_angle_gamma   120.00000000
_symmetry_Int_Tables_number   1
_chemical_formula_structural   Li4TeF2
_chemical_formula_sum   'Li96 Te24 F48'
_cell_volume   3061.06511374
_cell_formula_units_Z   24
loop_
 _symmetry_equiv_pos_site_id
 _symmetry_equiv_pos_as_xyz
  1  'x, y, z'
loop_
 _atom_site_type_symbol
 _atom_site_label
 _atom_site_symmetry_multiplicity
 _atom_site_fract_x
 _atom_site_fract_y
 _atom_site_fract_z
 _atom_site_occupancy
  F  F0  1  0.00000000  0.00000000  0.30545867  1
  F  F1  1  0.00000000  0.00000000  0.19454133  1
  F  F2  1  0.00000000  0.00000000  0.69454133  1
  F  F3  1  0.00000000  0.00000000  0.80545867  1
  F  F4  1  0.66666667  0.33333333  0.63879200  1
  F  F5  1  0.66666667  0.33333333  0.52787467  1
  F  F6  1  0.66666667  0.33333333  0.02787467  1
  F  F7  1  0.66666667  0.33333333  0.13879200  1
  F  F8  1  0.33333333  0.66666667  0.97212533  1
  F  F9  1  0.33333333  0.66666667  0.86120800  1
  F  F10  1  0.33333333  0.66666667  0.36120800  1
  F  F11  1  0.33333333  0.66666667  0.47212533  1
  F  F12  1  0.35912880  0.51944193  0.63947176  1
  F  F13  1  -0.51944193  -0.16031313  0.63947176  1
  F  F14  1  0.16031313  -0.35912880  0.63947176  1
  F  F15  1  0.51944193  0.35912880  -0.13947176  1
  F  F16  1  -0.16031313  -0.51944193  -0.13947176  1
  F  F17  1  -0.35912880  0.16031313  -0.13947176  1
  F  F18  1  -0.35912880  -0.51944193  -0.63947176  1
  F  F19  1  0.51944193  0.16031313  -0.63947176  1
  F  F20  1  -0.16031313  0.35912880  -0.63947176  1
  F  F21  1  -0.51944193  -0.35912880  1.13947176  1
  F  F22  1  0.16031313  0.51944193  1.13947176  1
  F  F23  1  0.35912880  -0.16031313  1.13947176  1
  F  F24  1  1.02579547  0.85277526  0.97280510  1
  F  F25  1  0.14722474  0.17302020  0.97280510  1
  F  F26  1  0.82697980  -0.02579547  0.97280510  1
  F  F27  1  1.18610860  0.69246213  0.19386157  1
  F  F28  1  0.50635354  -0.18610860  0.19386157  1
  F  F29  1  0.30753787  0.49364646  0.19386157  1
  F  F30  1  0.30753787  -0.18610860  -0.30613843  1
  F  F31  1  1.18610860  0.49364646  -0.30613843  1
  F  F32  1  0.50635354  0.69246213  -0.30613843  1
  F  F33  1  0.14722474  -0.02579547  1.47280510  1
  F  F34  1  0.82697980  0.85277526  1.47280510  1
  F  F35  1  1.02579547  0.17302020  1.47280510  1
  F  F36  1  0.69246213  1.18610860  1.30613843  1
  F  F37  1  -0.18610860  0.50635354  1.30613843  1
  F  F38  1  0.49364646  0.30753787  1.30613843  1
  F  F39  1  0.85277526  1.02579547  0.52719490  1
  F  F40  1  0.17302020  0.14722474  0.52719490  1
  F  F41  1  -0.02579547  0.82697980  0.52719490  1
  F  F42  1  -0.02579547  0.14722474  0.02719490  1
  F  F43  1  0.85277526  0.82697980  0.02719490  1
  F  F44  1  0.17302020  1.02579547  0.02719490  1
  F  F45  1  -0.18610860  0.30753787  1.80613843  1
  F  F46  1  0.49364646  1.18610860  1.80613843  1
  F  F47  1  0.69246213  0.50635354  1.80613843  1
  Li  Li48  1  0.50000000  0.00000000  -0.00000000  1
  Li  Li49  1  0.00000000  0.50000000  0.00000000  1
  Li  Li50  1  0.50000000  0.50000000  0.00000000  1
  Li  Li51  1  0.00000000  0.50000000  0.50000000  1
  Li  Li52  1  0.50000000  0.00000000  0.50000000  1
  Li  Li53  1  0.50000000  0.50000000  0.50000000  1
  Li  Li54  1  0.16666667  0.33333333  0.33333333  1
  Li  Li55  1  0.66666667  0.83333333  0.33333333  1
  Li  Li56  1  0.16666667  0.83333333  0.33333333  1
  Li  Li57  1  0.66666667  0.83333333  0.83333333  1
  Li  Li58  1  0.16666667  0.33333333  0.83333333  1
  Li  Li59  1  0.16666667  0.83333333  0.83333333  1
  Li  Li60  1  0.83333333  0.66666667  0.66666667  1
  Li  Li61  1  0.33333333  0.16666667  0.66666667  1
  Li  Li62  1  0.83333333  0.16666667  0.66666667  1
  Li  Li63  1  0.33333333  0.16666667  0.16666667  1
  Li  Li64  1  0.83333333  0.66666667  0.16666667  1
  Li  Li65  1  0.83333333  0.16666667  0.16666667  1
  Li  Li66  1  0.20591214  0.80057346  0.43484073  1
  Li  Li67  1  0.19942654  0.40533868  0.43484073  1
  Li  Li68  1  0.59466132  0.79408786  0.43484073  1
  Li  Li69  1  0.80057346  0.20591214  0.06515927  1
  Li  Li70  1  0.40533868  0.19942654  0.06515927  1
  Li  Li71  1  0.79408786  0.59466132  0.06515927  1
  Li  Li72  1  0.79408786  0.19942654  0.56515927  1
  Li  Li73  1  0.80057346  0.59466132  0.56515927  1
  Li  Li74  1  0.40533868  0.20591214  0.56515927  1
  Li  Li75  1  0.19942654  0.79408786  0.93484073  1
  Li  Li76  1  0.59466132  0.80057346  0.93484073  1
  Li  Li77  1  0.20591214  0.40533868  0.93484073  1
  Li  Li78  1  0.87257881  0.13390679  0.76817406  1
  Li  Li79  1  0.86609321  0.73867202  0.76817406  1
  Li  Li80  1  0.26132798  0.12742119  0.76817406  1
  Li  Li81  1  0.46724012  0.53924547  0.39849260  1
  Li  Li82  1  0.07200535  0.53275988  0.39849260  1
  Li  Li83  1  0.46075453  0.92799465  0.39849260  1
  Li  Li84  1  0.46075453  0.53275988  0.89849260  1
  Li  Li85  1  0.46724012  0.92799465  0.89849260  1
  Li  Li86  1  0.07200535  0.53924547  0.89849260  1
  Li  Li87  1  0.86609321  0.12742119  0.26817406  1
  Li  Li88  1  0.26132798  0.13390679  0.26817406  1
  Li  Li89  1  0.87257881  0.73867202  0.26817406  1
  Li  Li90  1  0.53924547  0.46724012  0.10150740  1
  Li  Li91  1  0.53275988  0.07200535  0.10150740  1
  Li  Li92  1  0.92799465  0.46075453  0.10150740  1
  Li  Li93  1  0.13390679  0.87257881  0.73182594  1
  Li  Li94  1  0.73867202  0.86609321  0.73182594  1
  Li  Li95  1  0.12742119  0.26132798  0.73182594  1
  Li  Li96  1  0.12742119  0.86609321  0.23182594  1
  Li  Li97  1  0.13390679  0.26132798  0.23182594  1
  Li  Li98  1  0.73867202  0.87257881  0.23182594  1
  Li  Li99  1  0.53275988  0.46075453  0.60150740  1
  Li  Li100  1  0.92799465  0.46724012  0.60150740  1
  Li  Li101  1  0.53924547  0.07200535  0.60150740  1
  Li  Li102  1  0.00000000  0.00000000  0.00000000  1
  Li  Li103  1  0.00000000  0.00000000  0.50000000  1
  Li  Li104  1  0.66666667  0.33333333  0.33333333  1
  Li  Li105  1  0.66666667  0.33333333  0.83333333  1
  Li  Li106  1  0.33333333  0.66666667  0.66666667  1
  Li  Li107  1  0.33333333  0.66666667  0.16666667  1
  Li  Li108  1  0.87699646  0.61967125  0.37368959  1
  Li  Li109  1  0.38032875  0.25732521  0.37368959  1
  Li  Li110  1  0.74267479  0.12300354  0.37368959  1
  Li  Li111  1  0.61967125  0.87699646  0.12631041  1
  Li  Li112  1  0.25732521  0.38032875  0.12631041  1
  Li  Li113  1  0.12300354  0.74267479  0.12631041  1
  Li  Li114  1  0.12300354  0.38032875  0.62631041  1
  Li  Li115  1  0.61967125  0.74267479  0.62631041  1
  Li  Li116  1  0.25732521  0.87699646  0.62631041  1
  Li  Li117  1  0.38032875  0.12300354  0.87368959  1
  Li  Li118  1  0.74267479  0.61967125  0.87368959  1
  Li  Li119  1  0.87699646  0.25732521  0.87368959  1
  Li  Li120  1  0.54366313  0.95300458  0.70702292  1
  Li  Li121  1  0.04699542  0.59065854  0.70702292  1
  Li  Li122  1  0.40934146  0.45633687  0.70702292  1
  Li  Li123  1  0.28633792  0.21032979  0.45964375  1
  Li  Li124  1  0.92399188  0.71366208  0.45964375  1
  Li  Li125  1  0.78967021  0.07600812  0.45964375  1
  Li  Li126  1  0.78967021  0.71366208  0.95964375  1
  Li  Li127  1  0.28633792  0.07600812  0.95964375  1
  Li  Li128  1  0.92399188  0.21032979  0.95964375  1
  Li  Li129  1  0.04699542  0.45633687  0.20702292  1
  Li  Li130  1  0.40934146  0.95300458  0.20702292  1
  Li  Li131  1  0.54366313  0.59065854  0.20702292  1
  Li  Li132  1  0.21032979  0.28633792  0.04035625  1
  Li  Li133  1  0.71366208  0.92399188  0.04035625  1
  Li  Li134  1  0.07600812  0.78967021  0.04035625  1
  Li  Li135  1  0.95300458  0.54366313  0.79297708  1
  Li  Li136  1  0.59065854  0.04699542  0.79297708  1
  Li  Li137  1  0.45633687  0.40934146  0.79297708  1
  Li  Li138  1  0.45633687  0.04699542  0.29297708  1
  Li  Li139  1  0.95300458  0.40934146  0.29297708  1
  Li  Li140  1  0.59065854  0.54366313  0.29297708  1
  Li  Li141  1  0.71366208  0.78967021  0.54035625  1
  Li  Li142  1  0.07600812  0.28633792  0.54035625  1
  Li  Li143  1  0.21032979  0.92399188  0.54035625  1
  Te  Te144  1  0.11683862  0.00000000  0.25000000  1
  Te  Te145  1  0.00000000  0.11683862  0.25000000  1
  Te  Te146  1  0.88316138  0.88316138  0.25000000  1
  Te  Te147  1  0.88316138  0.00000000  0.75000000  1
  Te  Te148  1  0.00000000  0.88316138  0.75000000  1
  Te  Te149  1  0.11683862  0.11683862  0.75000000  1
  Te  Te150  1  0.78350529  0.33333333  0.58333333  1
  Te  Te151  1  0.66666667  0.45017195  0.58333333  1
  Te  Te152  1  0.54982805  0.21649471  0.58333333  1
  Te  Te153  1  0.54982805  0.33333333  0.08333333  1
  Te  Te154  1  0.66666667  0.21649471  0.08333333  1
  Te  Te155  1  0.78350529  0.45017195  0.08333333  1
  Te  Te156  1  0.45017195  0.66666667  0.91666667  1
  Te  Te157  1  0.33333333  0.78350529  0.91666667  1
  Te  Te158  1  0.21649471  0.54982805  0.91666667  1
  Te  Te159  1  0.21649471  0.66666667  0.41666667  1
  Te  Te160  1  0.33333333  0.54982805  0.41666667  1
  Te  Te161  1  0.45017195  0.78350529  0.41666667  1
  Te  Te162  1  0.00000000  0.00000000  0.25000000  1
  Te  Te163  1  0.00000000  0.00000000  0.75000000  1
  Te  Te164  1  0.66666667  0.33333333  0.58333333  1
  Te  Te165  1  0.66666667  0.33333333  0.08333333  1
  Te  Te166  1  0.33333333  0.66666667  0.91666667  1
  Te  Te167  1  0.33333333  0.66666667  0.41666667  1
