# generated using pymatgen
data_LiF
_symmetry_space_group_name_H-M   'P 1'
_cell_length_a   5.70479090
_cell_length_b   12.71125407
_cell_length_c   6.21447815
_cell_angle_alpha   90.00000000
_cell_angle_beta   90.00000000
_cell_angle_gamma   90.00000000
_symmetry_Int_Tables_number   1
_chemical_formula_structural   LiF
_chemical_formula_sum   'Li28 F28'
_cell_volume   450.64317256
_cell_formula_units_Z   28
loop_
 _symmetry_equiv_pos_site_id
 _symmetry_equiv_pos_as_xyz
  1  'x, y, z'
loop_
 _atom_site_type_symbol
 _atom_site_label
 _atom_site_symmetry_multiplicity
 _atom_site_fract_x
 _atom_site_fract_y
 _atom_site_fract_z
 _atom_site_occupancy
  F  F0  1  0.34154890  0.06040133  0.79473672  1
  F  F1  1  0.15845110  0.93959867  0.29473672  1
  F  F2  1  0.65845110  0.56040133  0.20526328  1
  F  F3  1  0.84154890  0.43959867  0.70526328  1
  F  F4  1  0.65845110  0.93959867  0.20526328  1
  F  F5  1  0.84154890  0.06040133  0.70526328  1
  F  F6  1  0.34154890  0.43959867  0.79473672  1
  F  F7  1  0.15845110  0.56040133  0.29473672  1
  F  F8  1  0.79129755  0.51099818  0.66704384  1
  F  F9  1  0.70870245  0.48900182  0.16704384  1
  F  F10  1  0.20870245  0.01099818  0.33295616  1
  F  F11  1  0.29129755  0.98900182  0.83295616  1
  F  F12  1  0.20870245  0.48900182  0.33295616  1
  F  F13  1  0.29129755  0.51099818  0.83295616  1
  F  F14  1  0.79129755  0.98900182  0.66704384  1
  F  F15  1  0.70870245  0.01099818  0.16704384  1
  F  F16  1  0.84583733  0.48325087  0.93000230  1
  F  F17  1  0.65416267  0.51674913  0.43000230  1
  F  F18  1  0.15416267  0.98325087  0.06999770  1
  F  F19  1  0.34583733  0.01674913  0.56999770  1
  F  F20  1  0.15416267  0.51674913  0.06999770  1
  F  F21  1  0.34583733  0.48325087  0.56999770  1
  F  F22  1  0.84583733  0.01674913  0.93000230  1
  F  F23  1  0.65416267  0.98325087  0.43000230  1
  F  F24  1  0.84668325  0.25000000  0.47961542  1
  F  F25  1  0.65331675  0.75000000  0.97961542  1
  F  F26  1  0.15331675  0.75000000  0.52038458  1
  F  F27  1  0.34668325  0.25000000  0.02038458  1
  Li  Li28  1  0.66744756  0.25000000  0.89578664  1
  Li  Li29  1  0.83255244  0.75000000  0.39578664  1
  Li  Li30  1  0.33255244  0.75000000  0.10421336  1
  Li  Li31  1  0.16744756  0.25000000  0.60421336  1
  Li  Li32  1  0.25225085  0.16758993  0.97771324  1
  Li  Li33  1  0.24774915  -0.16758993  1.47771324  1
  Li  Li34  1  -0.25225085  0.66758993  -0.97771324  1
  Li  Li35  1  0.75225085  0.33241007  -0.47771324  1
  Li  Li36  1  -0.25225085  -0.16758993  -0.97771324  1
  Li  Li37  1  0.75225085  0.16758993  -0.47771324  1
  Li  Li38  1  0.25225085  0.33241007  0.97771324  1
  Li  Li39  1  0.24774915  0.66758993  1.47771324  1
  Li  Li40  1  0.01530020  0.64561801  0.05193875  1
  Li  Li41  1  0.48469980  0.35438199  0.55193875  1
  Li  Li42  1  0.98469980  0.14561801  0.94806125  1
  Li  Li43  1  0.51530020  0.85438199  0.44806125  1
  Li  Li44  1  0.98469980  0.35438199  0.94806125  1
  Li  Li45  1  0.51530020  0.64561801  0.44806125  1
  Li  Li46  1  0.01530020  0.85438199  0.05193875  1
  Li  Li47  1  0.48469980  0.14561801  0.55193875  1
  Li  Li48  1  0.78987708  0.92640791  0.48892207  1
  Li  Li49  1  0.71012292  0.07359209  0.98892207  1
  Li  Li50  1  0.21012292  0.42640791  0.51107793  1
  Li  Li51  1  0.28987708  0.57359209  0.01107793  1
  Li  Li52  1  0.21012292  0.07359209  0.51107793  1
  Li  Li53  1  0.28987708  0.92640791  0.01107793  1
  Li  Li54  1  0.78987708  0.57359209  0.48892207  1
  Li  Li55  1  0.71012292  0.42640791  0.98892207  1
