# generated using pymatgen
data_Li2Y2MoP2
_symmetry_space_group_name_H-M   'P 1'
_cell_length_a   4.99793499
_cell_length_b   5.23430125
_cell_length_c   7.00100401
_cell_angle_alpha   94.68569580
_cell_angle_beta   99.91365524
_cell_angle_gamma   108.36450116
_symmetry_Int_Tables_number   1
_chemical_formula_structural   Li2Y2MoP2
_chemical_formula_sum   'Li2 Y2 Mo1 P2'
_cell_volume   169.40846154
_cell_formula_units_Z   1
loop_
 _symmetry_equiv_pos_site_id
 _symmetry_equiv_pos_as_xyz
  1  'x, y, z'
loop_
 _atom_site_type_symbol
 _atom_site_label
 _atom_site_symmetry_multiplicity
 _atom_site_fract_x
 _atom_site_fract_y
 _atom_site_fract_z
 _atom_site_occupancy
  Y  Y0  1  0.00000000  0.00000000  0.00000000  1
  Y  Y1  1  0.50000000  0.50000000  0.50000000  1
  P  P2  1  0.25000000  0.25000000  0.25000000  1
  P  P3  1  0.75000000  0.25000000  0.00000000  1
  Mo  Mo4  1  0.25000000  0.75000000  0.50000000  1
  Li  Li5  1  0.00638403  0.10515947  0.61339287  1
  Li  Li6  1  0.67764977  0.55085697  0.72584189  1
