# generated using pymatgen
data_Li2Y2MoP3Se2
_symmetry_space_group_name_H-M   'P 1'
_cell_length_a   5.43331697
_cell_length_b   5.63412891
_cell_length_c   7.29057026
_cell_angle_alpha   94.05247753
_cell_angle_beta   98.82545356
_cell_angle_gamma   106.27719160
_symmetry_Int_Tables_number   1
_chemical_formula_structural   Li2Y2MoP3Se2
_chemical_formula_sum   'Li2 Y2 Mo1 P3 Se2'
_cell_volume   210.17124018
_cell_formula_units_Z   1
loop_
 _symmetry_equiv_pos_site_id
 _symmetry_equiv_pos_as_xyz
  1  'x, y, z'
loop_
 _atom_site_type_symbol
 _atom_site_label
 _atom_site_symmetry_multiplicity
 _atom_site_fract_x
 _atom_site_fract_y
 _atom_site_fract_z
 _atom_site_occupancy
  Se  Se0  1  0.00000000  0.00000000  0.00000000  1
  Se  Se1  1  0.50000000  0.50000000  0.50000000  1
  Y  Y2  1  0.25000000  0.25000000  0.25000000  1
  Y  Y3  1  0.75000000  0.25000000  0.00000000  1
  P  P4  1  0.25000000  0.75000000  0.50000000  1
  P  P5  1  0.93778838  0.33059565  0.30924246  1
  P  P6  1  0.90345724  0.48121855  0.95861897  1
  Mo  Mo7  1  0.71882445  0.83402844  0.21991543  1
  Li  Li8  1  0.76426353  0.51041278  0.34908325  1
  Li  Li9  1  0.93897632  0.92178226  0.25005682  1
