# generated using pymatgen
data_LiF
_symmetry_space_group_name_H-M   'P 1'
_cell_length_a   10.34561100
_cell_length_b   10.34561100
_cell_length_c   17.61604008
_cell_angle_alpha   90.00000000
_cell_angle_beta   90.00000000
_cell_angle_gamma   90.00000000
_symmetry_Int_Tables_number   1
_chemical_formula_structural   LiF
_chemical_formula_sum   'Li45 F45'
_cell_volume   1885.47413595
_cell_formula_units_Z   45
loop_
 _symmetry_equiv_pos_site_id
 _symmetry_equiv_pos_as_xyz
  1  'x, y, z'
loop_
 _atom_site_type_symbol
 _atom_site_label
 _atom_site_symmetry_multiplicity
 _atom_site_fract_x
 _atom_site_fract_y
 _atom_site_fract_z
 _atom_site_occupancy
  F  F0  1  0.00000000  0.50000000  0.50000000  1
  F  F1  1  0.50000000  0.00000000  0.50000000  1
  F  F2  1  0.93181127  0.38435656  0.61713334  1
  F  F3  1  -0.93181127  -0.38435656  0.61713334  1
  F  F4  1  -0.38435656  0.93181127  0.61713334  1
  F  F5  1  0.38435656  -0.93181127  0.61713334  1
  F  F6  1  -0.93181127  0.38435656  -0.61713334  1
  F  F7  1  0.93181127  -0.38435656  -0.61713334  1
  F  F8  1  0.38435656  0.93181127  -0.61713334  1
  F  F9  1  -0.38435656  -0.93181127  -0.61713334  1
  F  F10  1  -0.93181127  -0.38435656  -0.61713334  1
  F  F11  1  0.93181127  0.38435656  -0.61713334  1
  F  F12  1  0.38435656  -0.93181127  -0.61713334  1
  F  F13  1  -0.38435656  0.93181127  -0.61713334  1
  F  F14  1  0.93181127  -0.38435656  0.61713334  1
  F  F15  1  -0.93181127  0.38435656  0.61713334  1
  F  F16  1  -0.38435656  -0.93181127  0.61713334  1
  F  F17  1  0.38435656  0.93181127  0.61713334  1
  F  F18  1  0.31339261  0.31339261  0.68920100  1
  F  F19  1  0.68660739  0.68660739  0.68920100  1
  F  F20  1  0.68660739  0.31339261  0.68920100  1
  F  F21  1  0.31339261  0.68660739  0.68920100  1
  F  F22  1  0.68660739  0.31339261  0.31079900  1
  F  F23  1  0.31339261  0.68660739  0.31079900  1
  F  F24  1  0.31339261  0.31339261  0.31079900  1
  F  F25  1  0.68660739  0.68660739  0.31079900  1
  F  F26  1  0.84753424  0.39514520  -0.00000000  1
  F  F27  1  0.15246576  0.60485480  0.00000000  1
  F  F28  1  0.60485480  0.84753424  0.00000000  1
  F  F29  1  0.39514520  0.15246576  0.00000000  1
  F  F30  1  0.15246576  0.39514520  0.00000000  1
  F  F31  1  0.84753424  0.60485480  -0.00000000  1
  F  F32  1  0.39514520  0.84753424  0.00000000  1
  F  F33  1  0.60485480  0.15246576  -0.00000000  1
  F  F34  1  0.00000000  0.50000000  0.93822867  1
  F  F35  1  0.50000000  0.00000000  0.93822867  1
  F  F36  1  0.00000000  0.50000000  0.06177133  1
  F  F37  1  0.50000000  0.00000000  0.06177133  1
  F  F38  1  0.76323056  0.76323056  -0.00000000  1
  F  F39  1  0.23676944  0.23676944  0.00000000  1
  F  F40  1  0.23676944  0.76323056  0.00000000  1
  F  F41  1  0.76323056  0.23676944  0.00000000  1
  F  F42  1  0.50000000  0.50000000  0.56480045  1
  F  F43  1  0.50000000  0.50000000  0.43519955  1
  F  F44  1  0.00000000  0.00000000  0.50000000  1
  Li  Li45  1  0.70973512  0.70973512  0.61328724  1
  Li  Li46  1  0.29026488  0.29026488  0.61328724  1
  Li  Li47  1  0.29026488  0.70973512  0.61328724  1
  Li  Li48  1  0.70973512  0.29026488  0.61328724  1
  Li  Li49  1  0.29026488  0.70973512  0.38671276  1
  Li  Li50  1  0.70973512  0.29026488  0.38671276  1
  Li  Li51  1  0.70973512  0.70973512  0.38671276  1
  Li  Li52  1  0.29026488  0.29026488  0.38671276  1
  Li  Li53  1  0.00000000  0.50000000  0.00000000  1
  Li  Li54  1  0.50000000  0.00000000  0.00000000  1
  Li  Li55  1  0.27993715  0.27993715  0.18588900  1
  Li  Li56  1  0.72006285  0.72006285  0.18588900  1
  Li  Li57  1  0.72006285  0.27993715  0.18588900  1
  Li  Li58  1  0.27993715  0.72006285  0.18588900  1
  Li  Li59  1  0.72006285  0.27993715  0.81411100  1
  Li  Li60  1  0.27993715  0.72006285  0.81411100  1
  Li  Li61  1  0.27993715  0.27993715  0.81411100  1
  Li  Li62  1  0.72006285  0.72006285  0.81411100  1
  Li  Li63  1  0.68714362  0.00000000  0.19367751  1
  Li  Li64  1  0.31285638  0.00000000  0.19367751  1
  Li  Li65  1  0.00000000  0.68714362  0.19367751  1
  Li  Li66  1  0.00000000  0.31285638  0.19367751  1
  Li  Li67  1  0.31285638  0.00000000  0.80632249  1
  Li  Li68  1  0.68714362  0.00000000  0.80632249  1
  Li  Li69  1  0.00000000  0.68714362  0.80632249  1
  Li  Li70  1  0.00000000  0.31285638  0.80632249  1
  Li  Li71  1  0.85329387  0.00000000  0.21062044  1
  Li  Li72  1  0.14670613  0.00000000  0.21062044  1
  Li  Li73  1  0.00000000  0.85329387  0.21062044  1
  Li  Li74  1  0.00000000  0.14670613  0.21062044  1
  Li  Li75  1  0.14670613  0.00000000  0.78937956  1
  Li  Li76  1  0.85329387  0.00000000  0.78937956  1
  Li  Li77  1  0.00000000  0.85329387  0.78937956  1
  Li  Li78  1  0.00000000  0.14670613  0.78937956  1
  Li  Li79  1  0.00000000  0.00000000  0.00000000  1
  Li  Li80  1  0.25519971  0.50000000  0.79466838  1
  Li  Li81  1  0.74480029  0.50000000  0.79466838  1
  Li  Li82  1  0.50000000  0.25519971  0.79466838  1
  Li  Li83  1  0.50000000  0.74480029  0.79466838  1
  Li  Li84  1  0.74480029  0.50000000  0.20533162  1
  Li  Li85  1  0.25519971  0.50000000  0.20533162  1
  Li  Li86  1  0.50000000  0.25519971  0.20533162  1
  Li  Li87  1  0.50000000  0.74480029  0.20533162  1
  Li  Li88  1  0.00000000  0.00000000  0.85519774  1
  Li  Li89  1  0.00000000  0.00000000  0.14480226  1
