# generated using pymatgen
data_Li2LaScOF
_symmetry_space_group_name_H-M   'P 1'
_cell_length_a   3.29771513
_cell_length_b   2.84729892
_cell_length_c   5.56882422
_cell_angle_alpha   109.01511066
_cell_angle_beta   104.05708722
_cell_angle_gamma   96.87253928
_symmetry_Int_Tables_number   1
_chemical_formula_structural   Li2LaScOF
_chemical_formula_sum   'Li2 La1 Sc1 O1 F1'
_cell_volume   46.81509034
_cell_formula_units_Z   1
loop_
 _symmetry_equiv_pos_site_id
 _symmetry_equiv_pos_as_xyz
  1  'x, y, z'
loop_
 _atom_site_type_symbol
 _atom_site_label
 _atom_site_symmetry_multiplicity
 _atom_site_fract_x
 _atom_site_fract_y
 _atom_site_fract_z
 _atom_site_occupancy
  F  F0  1  0.00000000  0.00000000  0.00000000  1
  O  O1  1  0.50000000  0.50000000  0.50000000  1
  Sc  Sc2  1  0.25000000  0.25000000  0.25000000  1
  Li  Li3  1  0.75000000  0.25000000  0.00000000  1
  Li  Li4  1  0.25000000  0.75000000  0.50000000  1
  La  La5  1  0.77072240  0.28645610  0.19720872  1
