# generated using pymatgen
data_LiF
_symmetry_space_group_name_H-M   'P 1'
_cell_length_a   7.29781170
_cell_length_b   10.27558041
_cell_length_c   8.91787351
_cell_angle_alpha   90.00000000
_cell_angle_beta   90.00000000
_cell_angle_gamma   90.00000000
_symmetry_Int_Tables_number   1
_chemical_formula_structural   LiF
_chemical_formula_sum   'Li24 F24'
_cell_volume   668.74465398
_cell_formula_units_Z   24
loop_
 _symmetry_equiv_pos_site_id
 _symmetry_equiv_pos_as_xyz
  1  'x, y, z'
loop_
 _atom_site_type_symbol
 _atom_site_label
 _atom_site_symmetry_multiplicity
 _atom_site_fract_x
 _atom_site_fract_y
 _atom_site_fract_z
 _atom_site_occupancy
  F  F0  1  0.38343222  0.64508603  0.75804342  1
  F  F1  1  0.11656778  0.35491397  0.25804342  1
  F  F2  1  0.61656778  0.14508603  0.24195658  1
  F  F3  1  0.88343222  0.85491397  0.74195658  1
  F  F4  1  0.61656778  0.35491397  0.24195658  1
  F  F5  1  0.88343222  0.64508603  0.74195658  1
  F  F6  1  0.38343222  0.85491397  0.75804342  1
  F  F7  1  0.11656778  0.14508603  0.25804342  1
  F  F8  1  0.56037362  0.42750972  0.59178904  1
  F  F9  1  0.93962638  0.57249028  0.09178904  1
  F  F10  1  0.43962638  0.92750972  0.40821096  1
  F  F11  1  0.06037362  0.07249028  0.90821096  1
  F  F12  1  0.43962638  0.57249028  0.40821096  1
  F  F13  1  0.06037362  0.42750972  0.90821096  1
  F  F14  1  0.56037362  0.07249028  0.59178904  1
  F  F15  1  0.93962638  0.92750972  0.09178904  1
  F  F16  1  0.64863703  0.89215213  0.85978648  1
  F  F17  1  0.85136297  0.10784787  0.35978648  1
  F  F18  1  0.35136297  0.39215213  0.14021352  1
  F  F19  1  0.14863703  0.60784787  0.64021352  1
  F  F20  1  0.35136297  0.10784787  0.14021352  1
  F  F21  1  0.14863703  0.89215213  0.64021352  1
  F  F22  1  0.64863703  0.60784787  0.85978648  1
  F  F23  1  0.85136297  0.39215213  0.35978648  1
  Li  Li24  1  0.00000000  0.00000000  0.00000000  1
  Li  Li25  1  0.50000000  0.00000000  0.50000000  1
  Li  Li26  1  0.00000000  0.50000000  0.00000000  1
  Li  Li27  1  0.50000000  0.50000000  0.50000000  1
  Li  Li28  1  0.99233442  0.93071523  0.52311007  1
  Li  Li29  1  -0.49233442  -0.93071523  1.02311007  1
  Li  Li30  1  -0.99233442  1.43071523  -0.52311007  1
  Li  Li31  1  1.49233442  -0.43071523  -0.02311007  1
  Li  Li32  1  -0.99233442  -0.93071523  -0.52311007  1
  Li  Li33  1  1.49233442  0.93071523  -0.02311007  1
  Li  Li34  1  0.99233442  -0.43071523  0.52311007  1
  Li  Li35  1  -0.49233442  1.43071523  1.02311007  1
  Li  Li36  1  0.00360175  0.65806729  0.70881541  1
  Li  Li37  1  0.49639825  0.34193271  0.20881541  1
  Li  Li38  1  0.99639825  0.15806729  0.29118459  1
  Li  Li39  1  0.50360175  0.84193271  0.79118459  1
  Li  Li40  1  0.99639825  0.34193271  0.29118459  1
  Li  Li41  1  0.50360175  0.65806729  0.79118459  1
  Li  Li42  1  0.00360175  0.84193271  0.70881541  1
  Li  Li43  1  0.49639825  0.15806729  0.20881541  1
  Li  Li44  1  0.81991716  0.25000000  0.03695164  1
  Li  Li45  1  0.68008284  0.75000000  0.53695164  1
  Li  Li46  1  0.18008284  0.75000000  0.96304836  1
  Li  Li47  1  0.31991716  0.25000000  0.46304836  1
