# generated using pymatgen
data_LiF
_symmetry_space_group_name_H-M   'P 1'
_cell_length_a   9.56647704
_cell_length_b   9.56647704
_cell_length_c   7.61841399
_cell_angle_alpha   90.00000000
_cell_angle_beta   90.00000000
_cell_angle_gamma   90.00000000
_symmetry_Int_Tables_number   1
_chemical_formula_structural   LiF
_chemical_formula_sum   'Li32 F32'
_cell_volume   697.21807314
_cell_formula_units_Z   32
loop_
 _symmetry_equiv_pos_site_id
 _symmetry_equiv_pos_as_xyz
  1  'x, y, z'
loop_
 _atom_site_type_symbol
 _atom_site_label
 _atom_site_symmetry_multiplicity
 _atom_site_fract_x
 _atom_site_fract_y
 _atom_site_fract_z
 _atom_site_occupancy
  F  F0  1  0.57803448  0.78571963  0.24399669  1
  F  F1  1  -0.57803448  -0.78571963  0.24399669  1
  F  F2  1  -0.78571963  0.57803448  0.24399669  1
  F  F3  1  0.78571963  -0.57803448  0.24399669  1
  F  F4  1  -0.57803448  0.78571963  -0.24399669  1
  F  F5  1  0.57803448  -0.78571963  -0.24399669  1
  F  F6  1  0.78571963  0.57803448  -0.24399669  1
  F  F7  1  -0.78571963  -0.57803448  -0.24399669  1
  F  F8  1  -0.57803448  -0.78571963  -0.24399669  1
  F  F9  1  0.57803448  0.78571963  -0.24399669  1
  F  F10  1  0.78571963  -0.57803448  -0.24399669  1
  F  F11  1  -0.78571963  0.57803448  -0.24399669  1
  F  F12  1  0.57803448  -0.78571963  0.24399669  1
  F  F13  1  -0.57803448  0.78571963  0.24399669  1
  F  F14  1  -0.78571963  -0.57803448  0.24399669  1
  F  F15  1  0.78571963  0.57803448  0.24399669  1
  F  F16  1  0.06435052  0.31006016  0.09130541  1
  F  F17  1  0.93564948  0.68993984  0.09130541  1
  F  F18  1  0.68993984  0.06435052  0.09130541  1
  F  F19  1  0.31006016  0.93564948  0.09130541  1
  F  F20  1  0.93564948  0.31006016  0.90869459  1
  F  F21  1  0.06435052  0.68993984  0.90869459  1
  F  F22  1  0.31006016  0.06435052  0.90869459  1
  F  F23  1  0.68993984  0.93564948  0.90869459  1
  F  F24  1  0.93564948  0.68993984  0.90869459  1
  F  F25  1  0.06435052  0.31006016  0.90869459  1
  F  F26  1  0.31006016  0.93564948  0.90869459  1
  F  F27  1  0.68993984  0.06435052  0.90869459  1
  F  F28  1  0.06435052  0.68993984  0.09130541  1
  F  F29  1  0.93564948  0.31006016  0.09130541  1
  F  F30  1  0.68993984  0.93564948  0.09130541  1
  F  F31  1  0.31006016  0.06435052  0.09130541  1
  Li  Li32  1  0.50000000  0.50000000  0.50000000  1
  Li  Li33  1  0.18635288  -0.00000000  0.32454779  1
  Li  Li34  1  0.81364712  0.00000000  0.32454779  1
  Li  Li35  1  0.00000000  0.18635288  0.32454779  1
  Li  Li36  1  0.00000000  0.81364712  0.32454779  1
  Li  Li37  1  0.81364712  0.00000000  0.67545221  1
  Li  Li38  1  0.18635288  -0.00000000  0.67545221  1
  Li  Li39  1  0.00000000  0.18635288  0.67545221  1
  Li  Li40  1  0.00000000  0.81364712  0.67545221  1
  Li  Li41  1  0.84116663  0.84116663  0.00000000  1
  Li  Li42  1  0.15883337  0.15883337  0.00000000  1
  Li  Li43  1  0.15883337  0.84116663  0.00000000  1
  Li  Li44  1  0.84116663  0.15883337  0.00000000  1
  Li  Li45  1  0.64217650  0.00000000  0.23665361  1
  Li  Li46  1  0.35782350  0.00000000  0.23665361  1
  Li  Li47  1  0.00000000  0.64217650  0.23665361  1
  Li  Li48  1  0.00000000  0.35782350  0.23665361  1
  Li  Li49  1  0.35782350  0.00000000  0.76334639  1
  Li  Li50  1  0.64217650  0.00000000  0.76334639  1
  Li  Li51  1  0.00000000  0.64217650  0.76334639  1
  Li  Li52  1  0.00000000  0.35782350  0.76334639  1
  Li  Li53  1  0.37327879  0.37327879  0.00000000  1
  Li  Li54  1  0.62672121  0.62672121  0.00000000  1
  Li  Li55  1  0.62672121  0.37327879  0.00000000  1
  Li  Li56  1  0.37327879  0.62672121  0.00000000  1
  Li  Li57  1  0.27187042  0.27187042  0.50000000  1
  Li  Li58  1  0.72812958  0.72812958  0.50000000  1
  Li  Li59  1  0.72812958  0.27187042  0.50000000  1
  Li  Li60  1  0.27187042  0.72812958  0.50000000  1
  Li  Li61  1  0.50000000  0.50000000  0.18759197  1
  Li  Li62  1  0.50000000  0.50000000  0.81240803  1
  Li  Li63  1  0.00000000  0.00000000  0.50000000  1
