# generated using pymatgen
data_LiF
_symmetry_space_group_name_H-M   'P 1'
_cell_length_a   6.31301091
_cell_length_b   6.31301091
_cell_length_c   16.48690576
_cell_angle_alpha   90.00000000
_cell_angle_beta   90.00000000
_cell_angle_gamma   90.00000000
_symmetry_Int_Tables_number   1
_chemical_formula_structural   LiF
_chemical_formula_sum   'Li25 F25'
_cell_volume   657.07090196
_cell_formula_units_Z   25
loop_
 _symmetry_equiv_pos_site_id
 _symmetry_equiv_pos_as_xyz
  1  'x, y, z'
loop_
 _atom_site_type_symbol
 _atom_site_label
 _atom_site_symmetry_multiplicity
 _atom_site_fract_x
 _atom_site_fract_y
 _atom_site_fract_z
 _atom_site_occupancy
  F  F0  1  0.42338716  0.50000000  0.11264649  1
  F  F1  1  0.57661284  0.50000000  0.11264649  1
  F  F2  1  0.50000000  0.42338716  0.11264649  1
  F  F3  1  0.50000000  0.57661284  0.11264649  1
  F  F4  1  0.57661284  0.50000000  0.88735351  1
  F  F5  1  0.42338716  0.50000000  0.88735351  1
  F  F6  1  0.50000000  0.42338716  0.88735351  1
  F  F7  1  0.50000000  0.57661284  0.88735351  1
  F  F8  1  0.36499720  0.50000000  0.00000000  1
  F  F9  1  0.63500280  0.50000000  -0.00000000  1
  F  F10  1  0.50000000  0.36499720  0.00000000  1
  F  F11  1  0.50000000  0.63500280  0.00000000  1
  F  F12  1  0.32683113  -0.00000000  0.71486003  1
  F  F13  1  0.67316887  -0.00000000  0.71486003  1
  F  F14  1  0.00000000  0.32683113  0.71486003  1
  F  F15  1  0.00000000  0.67316887  0.71486003  1
  F  F16  1  0.67316887  -0.00000000  0.28513997  1
  F  F17  1  0.32683113  -0.00000000  0.28513997  1
  F  F18  1  0.00000000  0.32683113  0.28513997  1
  F  F19  1  0.00000000  0.67316887  0.28513997  1
  F  F20  1  0.07915413  -0.00000000  0.00000000  1
  F  F21  1  0.92084587  0.00000000  0.00000000  1
  F  F22  1  0.00000000  0.07915413  0.00000000  1
  F  F23  1  0.00000000  0.92084587  0.00000000  1
  F  F24  1  0.50000000  0.50000000  0.00000000  1
  Li  Li25  1  0.35075012  0.86984225  0.83176477  1
  Li  Li26  1  -0.35075012  -0.86984225  0.83176477  1
  Li  Li27  1  -0.86984225  0.35075012  0.83176477  1
  Li  Li28  1  0.86984225  -0.35075012  0.83176477  1
  Li  Li29  1  -0.35075012  0.86984225  -0.83176477  1
  Li  Li30  1  0.35075012  -0.86984225  -0.83176477  1
  Li  Li31  1  0.86984225  0.35075012  -0.83176477  1
  Li  Li32  1  -0.86984225  -0.35075012  -0.83176477  1
  Li  Li33  1  -0.35075012  -0.86984225  -0.83176477  1
  Li  Li34  1  0.35075012  0.86984225  -0.83176477  1
  Li  Li35  1  0.86984225  -0.35075012  -0.83176477  1
  Li  Li36  1  -0.86984225  0.35075012  -0.83176477  1
  Li  Li37  1  0.35075012  -0.86984225  0.83176477  1
  Li  Li38  1  -0.35075012  0.86984225  0.83176477  1
  Li  Li39  1  -0.86984225  -0.35075012  0.83176477  1
  Li  Li40  1  0.86984225  0.35075012  0.83176477  1
  Li  Li41  1  0.32053598  0.32053598  0.00000000  1
  Li  Li42  1  0.67946402  0.67946402  0.00000000  1
  Li  Li43  1  0.67946402  0.32053598  0.00000000  1
  Li  Li44  1  0.32053598  0.67946402  0.00000000  1
  Li  Li45  1  0.00000000  0.50000000  0.00000000  1
  Li  Li46  1  0.50000000  0.00000000  0.00000000  1
  Li  Li47  1  0.50000000  0.50000000  0.50000000  1
  Li  Li48  1  0.00000000  0.50000000  0.50000000  1
  Li  Li49  1  0.50000000  0.00000000  0.50000000  1
