# generated using pymatgen
data_LiF
_symmetry_space_group_name_H-M   'P 1'
_cell_length_a   13.58686811
_cell_length_b   13.58686811
_cell_length_c   9.99125679
_cell_angle_alpha   90.00000000
_cell_angle_beta   90.00000000
_cell_angle_gamma   90.00000000
_symmetry_Int_Tables_number   1
_chemical_formula_structural   LiF
_chemical_formula_sum   'Li56 F56'
_cell_volume   1844.41582682
_cell_formula_units_Z   56
loop_
 _symmetry_equiv_pos_site_id
 _symmetry_equiv_pos_as_xyz
  1  'x, y, z'
loop_
 _atom_site_type_symbol
 _atom_site_label
 _atom_site_symmetry_multiplicity
 _atom_site_fract_x
 _atom_site_fract_y
 _atom_site_fract_z
 _atom_site_occupancy
  F  F0  1  0.70876097  0.01817885  0.63187986  1
  F  F1  1  0.79123903  0.98182115  0.13187986  1
  F  F2  1  0.23182115  0.45876097  0.88187986  1
  F  F3  1  0.26817885  0.54123903  0.38187986  1
  F  F4  1  0.79123903  0.01817885  0.36812014  1
  F  F5  1  0.70876097  0.98182115  0.86812014  1
  F  F6  1  0.26817885  0.45876097  0.11812014  1
  F  F7  1  0.23182115  0.54123903  0.61812014  1
  F  F8  1  0.29123903  0.98182115  0.36812014  1
  F  F9  1  0.20876097  0.01817885  0.86812014  1
  F  F10  1  0.76817885  0.54123903  0.11812014  1
  F  F11  1  0.73182115  0.45876097  0.61812014  1
  F  F12  1  0.20876097  0.98182115  0.63187986  1
  F  F13  1  0.29123903  0.01817885  0.13187986  1
  F  F14  1  0.73182115  0.54123903  0.88187986  1
  F  F15  1  0.76817885  0.45876097  0.38187986  1
  F  F16  1  0.20876097  0.51817885  0.13187986  1
  F  F17  1  0.29123903  0.48182115  0.63187986  1
  F  F18  1  0.73182115  0.95876097  0.38187986  1
  F  F19  1  0.76817885  0.04123903  0.88187986  1
  F  F20  1  0.29123903  0.51817885  0.86812014  1
  F  F21  1  0.20876097  0.48182115  0.36812014  1
  F  F22  1  0.76817885  0.95876097  0.61812014  1
  F  F23  1  0.73182115  0.04123903  0.11812014  1
  F  F24  1  0.79123903  0.48182115  0.86812014  1
  F  F25  1  0.70876097  0.51817885  0.36812014  1
  F  F26  1  0.26817885  0.04123903  0.61812014  1
  F  F27  1  0.23182115  0.95876097  0.11812014  1
  F  F28  1  0.70876097  0.48182115  0.13187986  1
  F  F29  1  0.79123903  0.51817885  0.63187986  1
  F  F30  1  0.23182115  0.04123903  0.38187986  1
  F  F31  1  0.26817885  0.95876097  0.88187986  1
  F  F32  1  0.40903280  0.65903280  0.12500000  1
  F  F33  1  0.09096720  0.34096720  0.62500000  1
  F  F34  1  0.59096720  0.15903280  0.37500000  1
  F  F35  1  0.90903280  0.84096720  0.87500000  1
  F  F36  1  0.59096720  0.34096720  0.87500000  1
  F  F37  1  0.90903280  0.65903280  0.37500000  1
  F  F38  1  0.40903280  0.84096720  0.62500000  1
  F  F39  1  0.09096720  0.15903280  0.12500000  1
  F  F40  1  0.90903280  0.15903280  0.62500000  1
  F  F41  1  0.59096720  0.84096720  0.12500000  1
  F  F42  1  0.09096720  0.65903280  0.87500000  1
  F  F43  1  0.40903280  0.34096720  0.37500000  1
  F  F44  1  0.09096720  0.84096720  0.37500000  1
  F  F45  1  0.40903280  0.15903280  0.87500000  1
  F  F46  1  0.90903280  0.34096720  0.12500000  1
  F  F47  1  0.59096720  0.65903280  0.62500000  1
  F  F48  1  0.00000000  0.25000000  0.37500000  1
  F  F49  1  0.00000000  0.75000000  0.62500000  1
  F  F50  1  0.50000000  0.25000000  0.62500000  1
  F  F51  1  0.50000000  0.75000000  0.37500000  1
  F  F52  1  0.50000000  0.75000000  0.87500000  1
  F  F53  1  0.50000000  0.25000000  0.12500000  1
  F  F54  1  0.00000000  0.75000000  0.12500000  1
  F  F55  1  0.00000000  0.25000000  0.87500000  1
  Li  Li56  1  0.11859436  0.80372208  0.73217638  1
  Li  Li57  1  0.38140564  -0.80372208  1.23217638  1
  Li  Li58  1  -0.55372208  0.86859436  0.98217638  1
  Li  Li59  1  1.05372208  0.13140564  1.48217638  1
  Li  Li60  1  0.38140564  0.80372208  -0.73217638  1
  Li  Li61  1  0.11859436  -0.80372208  -0.23217638  1
  Li  Li62  1  1.05372208  0.86859436  0.01782362  1
  Li  Li63  1  -0.55372208  0.13140564  -0.48217638  1
  Li  Li64  1  -0.11859436  -0.80372208  -0.73217638  1
  Li  Li65  1  0.61859436  0.80372208  -0.23217638  1
  Li  Li66  1  1.55372208  0.13140564  0.01782362  1
  Li  Li67  1  -0.05372208  0.86859436  -0.48217638  1
  Li  Li68  1  0.61859436  -0.80372208  0.73217638  1
  Li  Li69  1  -0.11859436  0.80372208  1.23217638  1
  Li  Li70  1  -0.05372208  0.13140564  0.98217638  1
  Li  Li71  1  1.55372208  0.86859436  1.48217638  1
  Li  Li72  1  0.61859436  1.30372208  1.23217638  1
  Li  Li73  1  0.88140564  -0.30372208  1.73217638  1
  Li  Li74  1  -0.05372208  1.36859436  1.48217638  1
  Li  Li75  1  1.55372208  0.63140564  1.98217638  1
  Li  Li76  1  0.88140564  1.30372208  -0.23217638  1
  Li  Li77  1  0.61859436  -0.30372208  0.26782362  1
  Li  Li78  1  1.55372208  1.36859436  0.51782362  1
  Li  Li79  1  -0.05372208  0.63140564  0.01782362  1
  Li  Li80  1  0.38140564  -0.30372208  -0.23217638  1
  Li  Li81  1  1.11859436  1.30372208  0.26782362  1
  Li  Li82  1  2.05372208  0.63140564  0.51782362  1
  Li  Li83  1  0.44627792  1.36859436  0.01782362  1
  Li  Li84  1  1.11859436  -0.30372208  1.23217638  1
  Li  Li85  1  0.38140564  1.30372208  1.73217638  1
  Li  Li86  1  0.44627792  0.63140564  1.48217638  1
  Li  Li87  1  2.05372208  1.36859436  1.98217638  1
  Li  Li88  1  0.00000000  0.00000000  0.00000000  1
  Li  Li89  1  0.50000000  0.00000000  0.50000000  1
  Li  Li90  1  0.25000000  0.75000000  0.25000000  1
  Li  Li91  1  0.25000000  0.25000000  0.75000000  1
  Li  Li92  1  0.50000000  0.00000000  0.00000000  1
  Li  Li93  1  0.00000000  0.00000000  0.50000000  1
  Li  Li94  1  0.25000000  0.75000000  0.75000000  1
  Li  Li95  1  0.25000000  0.25000000  0.25000000  1
  Li  Li96  1  0.50000000  0.50000000  0.50000000  1
  Li  Li97  1  0.00000000  0.50000000  0.00000000  1
  Li  Li98  1  0.75000000  0.25000000  0.75000000  1
  Li  Li99  1  0.75000000  0.75000000  0.25000000  1
  Li  Li100  1  0.00000000  0.50000000  0.50000000  1
  Li  Li101  1  0.50000000  0.50000000  0.00000000  1
  Li  Li102  1  0.75000000  0.25000000  0.25000000  1
  Li  Li103  1  0.75000000  0.75000000  0.75000000  1
  Li  Li104  1  0.00000000  0.25000000  0.12500000  1
  Li  Li105  1  0.00000000  0.75000000  0.37500000  1
  Li  Li106  1  0.00000000  0.75000000  0.87500000  1
  Li  Li107  1  0.00000000  0.25000000  0.62500000  1
  Li  Li108  1  0.50000000  0.75000000  0.62500000  1
  Li  Li109  1  0.50000000  0.25000000  0.87500000  1
  Li  Li110  1  0.50000000  0.25000000  0.37500000  1
  Li  Li111  1  0.50000000  0.75000000  0.12500000  1
