# generated using pymatgen
data_LiY2Cu3P2Se
_symmetry_space_group_name_H-M   'P 1'
_cell_length_a   5.15678899
_cell_length_b   5.23800055
_cell_length_c   6.96600684
_cell_angle_alpha   94.29202931
_cell_angle_beta   98.53271291
_cell_angle_gamma   105.96212686
_symmetry_Int_Tables_number   1
_chemical_formula_structural   LiY2Cu3P2Se
_chemical_formula_sum   'Li1 Y2 Cu3 P2 Se1'
_cell_volume   177.57527360
_cell_formula_units_Z   1
loop_
 _symmetry_equiv_pos_site_id
 _symmetry_equiv_pos_as_xyz
  1  'x, y, z'
loop_
 _atom_site_type_symbol
 _atom_site_label
 _atom_site_symmetry_multiplicity
 _atom_site_fract_x
 _atom_site_fract_y
 _atom_site_fract_z
 _atom_site_occupancy
  Se  Se0  1  0.12500000  0.00000000  0.25000000  1
  Cu  Cu1  1  0.00000000  0.00000000  0.00000000  1
  Cu  Cu2  1  0.37500000  0.00000000  0.25000000  1
  Cu  Cu3  1  0.25000000  0.25000000  0.25000000  1
  Y  Y4  1  0.00000000  0.25000000  0.12500000  1
  Y  Y5  1  0.99230756  0.50265281  0.72931238  1
  P  P6  1  0.54447161  0.34757485  0.93145056  1
  P  P7  1  0.52496300  0.95304348  0.06587633  1
  Li  Li8  1  0.79170153  0.74380964  0.42334376  1
