# generated using pymatgen
data_LiF
_symmetry_space_group_name_H-M   'P 1'
_cell_length_a   7.12693853
_cell_length_b   6.18372163
_cell_length_c   15.59509707
_cell_angle_alpha   90.00000000
_cell_angle_beta   90.00000000
_cell_angle_gamma   90.00000000
_symmetry_Int_Tables_number   1
_chemical_formula_structural   LiF
_chemical_formula_sum   'Li24 F24'
_cell_volume   687.29158366
_cell_formula_units_Z   24
loop_
 _symmetry_equiv_pos_site_id
 _symmetry_equiv_pos_as_xyz
  1  'x, y, z'
loop_
 _atom_site_type_symbol
 _atom_site_label
 _atom_site_symmetry_multiplicity
 _atom_site_fract_x
 _atom_site_fract_y
 _atom_site_fract_z
 _atom_site_occupancy
  F  F0  1  0.97065287  0.81527849  0.71917105  1
  F  F1  1  -0.47065287  -0.81527849  1.21917105  1
  F  F2  1  -0.97065287  1.31527849  -0.71917105  1
  F  F3  1  1.47065287  -0.31527849  -0.21917105  1
  F  F4  1  -0.97065287  -0.81527849  -0.71917105  1
  F  F5  1  1.47065287  0.81527849  -0.21917105  1
  F  F6  1  0.97065287  -0.31527849  0.71917105  1
  F  F7  1  -0.47065287  1.31527849  1.21917105  1
  F  F8  1  0.50084881  0.09709165  0.89221130  1
  F  F9  1  0.99915119  0.90290835  0.39221130  1
  F  F10  1  0.49915119  0.59709165  0.10778870  1
  F  F11  1  0.00084881  0.40290835  0.60778870  1
  F  F12  1  0.49915119  0.90290835  0.10778870  1
  F  F13  1  0.00084881  0.09709165  0.60778870  1
  F  F14  1  0.50084881  0.40290835  0.89221130  1
  F  F15  1  0.99915119  0.59709165  0.39221130  1
  F  F16  1  0.62383701  0.89022101  0.52753889  1
  F  F17  1  0.87616299  0.10977899  0.02753889  1
  F  F18  1  0.37616299  0.39022101  0.47246111  1
  F  F19  1  0.12383701  0.60977899  0.97246111  1
  F  F20  1  0.37616299  0.10977899  0.47246111  1
  F  F21  1  0.12383701  0.89022101  0.97246111  1
  F  F22  1  0.62383701  0.60977899  0.52753889  1
  F  F23  1  0.87616299  0.39022101  0.02753889  1
  Li  Li24  1  0.00000000  0.00000000  0.00000000  1
  Li  Li25  1  0.50000000  0.00000000  0.50000000  1
  Li  Li26  1  0.00000000  0.50000000  0.00000000  1
  Li  Li27  1  0.50000000  0.50000000  0.50000000  1
  Li  Li28  1  0.94669895  0.25000000  0.68958036  1
  Li  Li29  1  0.55330105  0.75000000  0.18958036  1
  Li  Li30  1  0.05330105  0.75000000  0.31041964  1
  Li  Li31  1  0.44669895  0.25000000  0.81041964  1
  Li  Li32  1  0.77497862  0.49636585  0.40785331  1
  Li  Li33  1  0.72502138  0.50363415  0.90785331  1
  Li  Li34  1  0.22502138  0.99636585  0.59214669  1
  Li  Li35  1  0.27497862  0.00363415  0.09214669  1
  Li  Li36  1  0.22502138  0.50363415  0.59214669  1
  Li  Li37  1  0.27497862  0.49636585  0.09214669  1
  Li  Li38  1  0.77497862  0.00363415  0.40785331  1
  Li  Li39  1  0.72502138  0.99636585  0.90785331  1
  Li  Li40  1  0.49181144  0.36978611  0.97070390  1
  Li  Li41  1  0.00818856  0.63021389  0.47070390  1
  Li  Li42  1  0.50818856  0.86978611  0.02929610  1
  Li  Li43  1  0.99181144  0.13021389  0.52929610  1
  Li  Li44  1  0.50818856  0.63021389  0.02929610  1
  Li  Li45  1  0.99181144  0.36978611  0.52929610  1
  Li  Li46  1  0.49181144  0.13021389  0.97070390  1
  Li  Li47  1  0.00818856  0.86978611  0.47070390  1
