# generated using pymatgen
data_LiF
_symmetry_space_group_name_H-M   'P 1'
_cell_length_a   10.47220441
_cell_length_b   8.30067016
_cell_length_c   4.61069284
_cell_angle_alpha   90.00000000
_cell_angle_beta   90.00000000
_cell_angle_gamma   90.00000000
_symmetry_Int_Tables_number   1
_chemical_formula_structural   LiF
_chemical_formula_sum   'Li14 F14'
_cell_volume   400.79053655
_cell_formula_units_Z   14
loop_
 _symmetry_equiv_pos_site_id
 _symmetry_equiv_pos_as_xyz
  1  'x, y, z'
loop_
 _atom_site_type_symbol
 _atom_site_label
 _atom_site_symmetry_multiplicity
 _atom_site_fract_x
 _atom_site_fract_y
 _atom_site_fract_z
 _atom_site_occupancy
  F  F0  1  0.00000000  0.00000000  0.50000000  1
  F  F1  1  0.50000000  0.50000000  0.00000000  1
  F  F2  1  0.21804683  0.95541745  0.62114832  1
  F  F3  1  -0.21804683  -0.95541745  0.62114832  1
  F  F4  1  0.28195317  1.45541745  -0.12114832  1
  F  F5  1  0.71804683  -0.45541745  -0.12114832  1
  F  F6  1  -0.21804683  -0.95541745  -0.62114832  1
  F  F7  1  0.21804683  0.95541745  -0.62114832  1
  F  F8  1  0.71804683  -0.45541745  1.12114832  1
  F  F9  1  0.28195317  1.45541745  1.12114832  1
  F  F10  1  0.00000000  0.50000000  0.00000000  1
  F  F11  1  0.50000000  0.00000000  0.50000000  1
  F  F12  1  0.00000000  0.50000000  0.50000000  1
  F  F13  1  0.50000000  0.00000000  0.00000000  1
  Li  Li14  1  0.85360814  0.43798050  0.18048753  1
  Li  Li15  1  0.14639186  0.56201950  0.18048753  1
  Li  Li16  1  0.64639186  0.93798050  0.31951247  1
  Li  Li17  1  0.35360814  0.06201950  0.31951247  1
  Li  Li18  1  0.14639186  0.56201950  0.81951247  1
  Li  Li19  1  0.85360814  0.43798050  0.81951247  1
  Li  Li20  1  0.35360814  0.06201950  0.68048753  1
  Li  Li21  1  0.64639186  0.93798050  0.68048753  1
  Li  Li22  1  0.78327766  0.93253470  0.00000000  1
  Li  Li23  1  0.21672234  0.06746530  0.00000000  1
  Li  Li24  1  0.71672234  0.43253470  0.50000000  1
  Li  Li25  1  0.28327766  0.56746530  0.50000000  1
  Li  Li26  1  0.00000000  0.00000000  0.00000000  1
  Li  Li27  1  0.50000000  0.50000000  0.50000000  1
