# generated using pymatgen
data_LiF
_symmetry_space_group_name_H-M   'P 1'
_cell_length_a   8.44324465
_cell_length_b   8.44324465
_cell_length_c   9.57614895
_cell_angle_alpha   90.00000000
_cell_angle_beta   90.00000000
_cell_angle_gamma   120.00000000
_symmetry_Int_Tables_number   1
_chemical_formula_structural   LiF
_chemical_formula_sum   'Li22 F22'
_cell_volume   591.20795760
_cell_formula_units_Z   22
loop_
 _symmetry_equiv_pos_site_id
 _symmetry_equiv_pos_as_xyz
  1  'x, y, z'
loop_
 _atom_site_type_symbol
 _atom_site_label
 _atom_site_symmetry_multiplicity
 _atom_site_fract_x
 _atom_site_fract_y
 _atom_site_fract_z
 _atom_site_occupancy
  F  F0  1  0.17315691  0.33279884  0.25000000  1
  F  F1  1  0.66720116  0.84035807  0.25000000  1
  F  F2  1  0.15964193  0.82684309  0.25000000  1
  F  F3  1  0.82684309  0.66720116  0.75000000  1
  F  F4  1  0.33279884  0.15964193  0.75000000  1
  F  F5  1  0.84035807  0.17315691  0.75000000  1
  F  F6  1  0.71169318  0.32522983  0.96401673  1
  F  F7  1  0.67477017  0.38646335  0.96401673  1
  F  F8  1  0.61353665  0.28830682  0.96401673  1
  F  F9  1  0.28830682  0.67477017  0.46401673  1
  F  F10  1  0.32522983  0.61353665  0.46401673  1
  F  F11  1  0.38646335  0.71169318  0.46401673  1
  F  F12  1  0.28830682  0.67477017  0.03598327  1
  F  F13  1  0.32522983  0.61353665  0.03598327  1
  F  F14  1  0.38646335  0.71169318  0.03598327  1
  F  F15  1  0.71169318  0.32522983  0.53598327  1
  F  F16  1  0.67477017  0.38646335  0.53598327  1
  F  F17  1  0.61353665  0.28830682  0.53598327  1
  F  F18  1  0.00000000  0.00000000  0.00000000  1
  F  F19  1  0.00000000  0.00000000  0.50000000  1
  F  F20  1  0.33333333  0.66666667  0.25000000  1
  F  F21  1  0.66666667  0.33333333  0.75000000  1
  Li  Li22  1  0.62006542  0.08210381  0.25000000  1
  Li  Li23  1  0.91789619  0.53796161  0.25000000  1
  Li  Li24  1  0.46203839  0.37993458  0.25000000  1
  Li  Li25  1  0.37993458  0.91789619  0.75000000  1
  Li  Li26  1  0.08210381  0.46203839  0.75000000  1
  Li  Li27  1  0.53796161  0.62006542  0.75000000  1
  Li  Li28  1  0.58315206  0.59175616  0.59201342  1
  Li  Li29  1  -0.59175616  -0.00860410  0.59201342  1
  Li  Li30  1  0.00860410  -0.58315206  0.59201342  1
  Li  Li31  1  -0.58315206  -0.59175616  1.09201342  1
  Li  Li32  1  0.59175616  0.00860410  1.09201342  1
  Li  Li33  1  -0.00860410  0.58315206  1.09201342  1
  Li  Li34  1  -0.58315206  -0.59175616  -0.59201342  1
  Li  Li35  1  0.59175616  0.00860410  -0.59201342  1
  Li  Li36  1  -0.00860410  0.58315206  -0.59201342  1
  Li  Li37  1  0.58315206  0.59175616  -0.09201342  1
  Li  Li38  1  -0.59175616  -0.00860410  -0.09201342  1
  Li  Li39  1  0.00860410  -0.58315206  -0.09201342  1
  Li  Li40  1  0.00000000  0.00000000  0.25000000  1
  Li  Li41  1  0.00000000  0.00000000  0.75000000  1
  Li  Li42  1  0.66666667  0.33333333  0.25000000  1
  Li  Li43  1  0.33333333  0.66666667  0.75000000  1
