# generated using pymatgen
data_LiF
_symmetry_space_group_name_H-M   'P 1'
_cell_length_a   10.04503808
_cell_length_b   10.04503808
_cell_length_c   11.98519998
_cell_angle_alpha   90.00000000
_cell_angle_beta   90.00000000
_cell_angle_gamma   120.00000000
_symmetry_Int_Tables_number   1
_chemical_formula_structural   LiF
_chemical_formula_sum   'Li26 F26'
_cell_volume   1047.31926348
_cell_formula_units_Z   26
loop_
 _symmetry_equiv_pos_site_id
 _symmetry_equiv_pos_as_xyz
  1  'x, y, z'
loop_
 _atom_site_type_symbol
 _atom_site_label
 _atom_site_symmetry_multiplicity
 _atom_site_fract_x
 _atom_site_fract_y
 _atom_site_fract_z
 _atom_site_occupancy
  F  F0  1  0.72545508  0.64637645  0.21252407  1
  F  F1  1  0.35362355  0.07907863  0.21252407  1
  F  F2  1  0.92092137  0.27454492  0.21252407  1
  F  F3  1  0.72545508  0.64637645  0.78747593  1
  F  F4  1  0.35362355  0.07907863  0.78747593  1
  F  F5  1  0.92092137  0.27454492  0.78747593  1
  F  F6  1  0.64637645  0.72545508  0.78747593  1
  F  F7  1  0.07907863  0.35362355  0.78747593  1
  F  F8  1  0.27454492  0.92092137  0.78747593  1
  F  F9  1  0.64637645  0.72545508  0.21252407  1
  F  F10  1  0.07907863  0.35362355  0.21252407  1
  F  F11  1  0.27454492  0.92092137  0.21252407  1
  F  F12  1  0.93625722  -0.00000000  0.92040623  1
  F  F13  1  0.00000000  0.93625722  0.92040623  1
  F  F14  1  0.06374278  0.06374278  0.92040623  1
  F  F15  1  0.93625722  -0.00000000  0.07959377  1
  F  F16  1  0.00000000  0.93625722  0.07959377  1
  F  F17  1  0.06374278  0.06374278  0.07959377  1
  F  F18  1  0.48858730  0.14338367  0.50000000  1
  F  F19  1  0.85661633  0.34520364  0.50000000  1
  F  F20  1  0.65479636  0.51141270  0.50000000  1
  F  F21  1  0.14338367  0.48858730  0.50000000  1
  F  F22  1  0.34520364  0.85661633  0.50000000  1
  F  F23  1  0.51141270  0.65479636  0.50000000  1
  F  F24  1  0.00000000  0.00000000  0.08312879  1
  F  F25  1  0.00000000  0.00000000  0.91687121  1
  Li  Li26  1  0.17218005  0.80286684  0.64287092  1
  Li  Li27  1  -0.80286684  -0.63068679  0.64287092  1
  Li  Li28  1  0.63068679  -0.17218005  0.64287092  1
  Li  Li29  1  0.17218005  0.80286684  -0.64287092  1
  Li  Li30  1  -0.80286684  -0.63068679  -0.64287092  1
  Li  Li31  1  0.63068679  -0.17218005  -0.64287092  1
  Li  Li32  1  0.80286684  0.17218005  -0.64287092  1
  Li  Li33  1  -0.63068679  -0.80286684  -0.64287092  1
  Li  Li34  1  -0.17218005  0.63068679  -0.64287092  1
  Li  Li35  1  0.80286684  0.17218005  0.64287092  1
  Li  Li36  1  -0.63068679  -0.80286684  0.64287092  1
  Li  Li37  1  -0.17218005  0.63068679  0.64287092  1
  Li  Li38  1  0.86494391  -0.00000000  0.20353962  1
  Li  Li39  1  0.00000000  0.86494391  0.20353962  1
  Li  Li40  1  0.13505609  0.13505609  0.20353962  1
  Li  Li41  1  0.86494391  -0.00000000  0.79646038  1
  Li  Li42  1  0.00000000  0.86494391  0.79646038  1
  Li  Li43  1  0.13505609  0.13505609  0.79646038  1
  Li  Li44  1  0.91148131  -0.00000000  -0.00000000  1
  Li  Li45  1  0.00000000  0.91148131  0.00000000  1
  Li  Li46  1  0.08851869  0.08851869  0.00000000  1
  Li  Li47  1  0.33333333  0.66666667  0.44658089  1
  Li  Li48  1  0.33333333  0.66666667  0.55341911  1
  Li  Li49  1  0.66666667  0.33333333  0.55341911  1
  Li  Li50  1  0.66666667  0.33333333  0.44658089  1
  Li  Li51  1  0.00000000  0.00000000  0.50000000  1
