# generated using pymatgen
data_LiCaF3
_symmetry_space_group_name_H-M   'P 1'
_cell_length_a   13.02975248
_cell_length_b   13.02975248
_cell_length_c   8.31565396
_cell_angle_alpha   90.00000000
_cell_angle_beta   90.00000000
_cell_angle_gamma   120.00000000
_symmetry_Int_Tables_number   1
_chemical_formula_structural   LiCaF3
_chemical_formula_sum   'Li18 Ca18 F54'
_cell_volume   1222.64217260
_cell_formula_units_Z   18
loop_
 _symmetry_equiv_pos_site_id
 _symmetry_equiv_pos_as_xyz
  1  'x, y, z'
loop_
 _atom_site_type_symbol
 _atom_site_label
 _atom_site_symmetry_multiplicity
 _atom_site_fract_x
 _atom_site_fract_y
 _atom_site_fract_z
 _atom_site_occupancy
  Ca  Ca0  1  0.65920590  0.73322260  0.12237408  1
  Ca  Ca1  1  -0.73322260  -0.07401670  0.12237408  1
  Ca  Ca2  1  0.07401670  -0.65920590  0.12237408  1
  Ca  Ca3  1  -0.73322260  -0.65920590  -0.12237408  1
  Ca  Ca4  1  0.07401670  0.73322260  -0.12237408  1
  Ca  Ca5  1  0.65920590  -0.07401670  -0.12237408  1
  Ca  Ca6  1  0.57823695  0.42176305  0.50000000  1
  Ca  Ca7  1  0.57823695  0.15647390  0.50000000  1
  Ca  Ca8  1  0.84352610  0.42176305  0.50000000  1
  Ca  Ca9  1  0.00000000  0.00000000  0.00000000  1
  Ca  Ca10  1  0.33333333  0.66666667  0.22764297  1
  Ca  Ca11  1  0.33333333  0.66666667  0.77235703  1
  Ca  Ca12  1  0.49405610  0.71111901  0.68364658  1
  Ca  Ca13  1  0.28888099  0.78293709  0.68364658  1
  Ca  Ca14  1  0.21706291  0.50594390  0.68364658  1
  Ca  Ca15  1  0.28888099  0.50594390  0.31635342  1
  Ca  Ca16  1  0.21706291  0.71111901  0.31635342  1
  Ca  Ca17  1  0.49405610  0.78293709  0.31635342  1
  F  F18  1  0.53406396  0.22031952  0.55164707  1
  F  F19  1  0.77968048  0.31374444  0.55164707  1
  F  F20  1  0.68625556  0.46593604  0.55164707  1
  F  F21  1  0.77968048  0.46593604  0.44835293  1
  F  F22  1  0.68625556  0.22031952  0.44835293  1
  F  F23  1  0.53406396  0.31374444  0.44835293  1
  F  F24  1  0.33333333  0.66666667  -0.00000000  1
  F  F25  1  0.07524674  0.83829619  0.00887053  1
  F  F26  1  0.16170381  0.23695056  0.00887053  1
  F  F27  1  0.76304944  0.92475326  0.00887053  1
  F  F28  1  0.16170381  0.92475326  0.99112947  1
  F  F29  1  0.76304944  0.83829619  0.99112947  1
  F  F30  1  0.07524674  0.23695056  0.99112947  1
  F  F31  1  0.14587831  0.01436678  0.81892298  1
  F  F32  1  0.98563322  0.13151153  0.81892298  1
  F  F33  1  0.86848847  0.85412169  0.81892298  1
  F  F34  1  0.98563322  0.85412169  0.18107702  1
  F  F35  1  0.86848847  0.01436678  0.18107702  1
  F  F36  1  0.14587831  0.13151153  0.18107702  1
  F  F37  1  0.79392832  0.90272838  0.94625629  1
  F  F38  1  0.09727162  0.89119993  0.94625629  1
  F  F39  1  0.10880007  0.20607168  0.94625629  1
  F  F40  1  0.09727162  0.20607168  0.05374371  1
  F  F41  1  0.10880007  0.90272838  0.05374371  1
  F  F42  1  0.79392832  0.89119993  0.05374371  1
  F  F43  1  0.88056893  0.70135883  0.65708927  1
  F  F44  1  0.29864117  0.17921010  0.65708927  1
  F  F45  1  0.82078990  0.11943107  0.65708927  1
  F  F46  1  0.29864117  0.11943107  0.34291073  1
  F  F47  1  0.82078990  0.70135883  0.34291073  1
  F  F48  1  0.88056893  0.17921010  0.34291073  1
  F  F49  1  0.58723097  0.33074430  0.94069768  1
  F  F50  1  0.66925570  0.25648667  0.94069768  1
  F  F51  1  0.74351333  0.41276903  0.94069768  1
  F  F52  1  0.66925570  0.41276903  0.05930232  1
  F  F53  1  0.74351333  0.33074430  0.05930232  1
  F  F54  1  0.58723097  0.25648667  0.05930232  1
  F  F55  1  0.25873362  0.83435044  0.51906234  1
  F  F56  1  0.16564956  0.42438319  0.51906234  1
  F  F57  1  0.57561681  0.74126638  0.51906234  1
  F  F58  1  0.16564956  0.74126638  0.48093766  1
  F  F59  1  0.57561681  0.83435044  0.48093766  1
  F  F60  1  0.25873362  0.42438319  0.48093766  1
  F  F61  1  0.44207994  0.48651251  0.75542447  1
  F  F62  1  0.51348749  0.95556743  0.75542447  1
  F  F63  1  0.04443257  0.55792006  0.75542447  1
  F  F64  1  0.51348749  0.55792006  0.24457553  1
  F  F65  1  0.04443257  0.48651251  0.24457553  1
  F  F66  1  0.44207994  0.95556743  0.24457553  1
  F  F67  1  0.24864549  0.75135451  0.00000000  1
  F  F68  1  0.24864549  0.49729098  -0.00000000  1
  F  F69  1  0.50270902  0.75135451  -0.00000000  1
  F  F70  1  0.66666667  0.33333333  0.63692062  1
  F  F71  1  0.66666667  0.33333333  0.36307938  1
  Li  Li72  1  0.12231724  0.06159139  0.57810373  1
  Li  Li73  1  0.93840861  0.06072585  0.57810373  1
  Li  Li74  1  0.93927415  0.87768276  0.57810373  1
  Li  Li75  1  0.93840861  0.87768276  0.42189627  1
  Li  Li76  1  0.93927415  0.06159139  0.42189627  1
  Li  Li77  1  0.12231724  0.06072585  0.42189627  1
  Li  Li78  1  0.05535146  0.24561223  0.62117729  1
  Li  Li79  1  0.75438777  0.80973923  0.62117729  1
  Li  Li80  1  0.19026077  0.94464854  0.62117729  1
  Li  Li81  1  0.75438777  0.94464854  0.37882271  1
  Li  Li82  1  0.19026077  0.24561223  0.37882271  1
  Li  Li83  1  0.05535146  0.80973923  0.37882271  1
  Li  Li84  1  0.03750180  0.64033924  0.18250718  1
  Li  Li85  1  0.35966076  0.39716256  0.18250718  1
  Li  Li86  1  0.60283744  0.96249820  0.18250718  1
  Li  Li87  1  0.35966076  0.96249820  0.81749282  1
  Li  Li88  1  0.60283744  0.64033924  0.81749282  1
  Li  Li89  1  0.03750180  0.39716256  0.81749282  1
