# generated using pymatgen
data_LiF
_symmetry_space_group_name_H-M   'P 1'
_cell_length_a   7.98716000
_cell_length_b   16.00424497
_cell_length_c   6.11682679
_cell_angle_alpha   90.00000000
_cell_angle_beta   90.00000000
_cell_angle_gamma   90.00000000
_symmetry_Int_Tables_number   1
_chemical_formula_structural   LiF
_chemical_formula_sum   'Li28 F28'
_cell_volume   781.90458213
_cell_formula_units_Z   28
loop_
 _symmetry_equiv_pos_site_id
 _symmetry_equiv_pos_as_xyz
  1  'x, y, z'
loop_
 _atom_site_type_symbol
 _atom_site_label
 _atom_site_symmetry_multiplicity
 _atom_site_fract_x
 _atom_site_fract_y
 _atom_site_fract_z
 _atom_site_occupancy
  F  F0  1  0.61737119  0.63132937  0.00000000  1
  F  F1  1  0.38262881  0.36867063  0.00000000  1
  F  F2  1  0.88262881  0.13132937  -0.00000000  1
  F  F3  1  0.11737119  0.86867063  -0.00000000  1
  F  F4  1  0.80654702  0.66376381  0.84617981  1
  F  F5  1  0.19345298  0.33623619  0.84617981  1
  F  F6  1  0.69345298  0.16376381  0.15382019  1
  F  F7  1  0.30654702  0.83623619  0.15382019  1
  F  F8  1  0.19345298  0.33623619  0.15382019  1
  F  F9  1  0.80654702  0.66376381  0.15382019  1
  F  F10  1  0.30654702  0.83623619  0.84617981  1
  F  F11  1  0.69345298  0.16376381  0.84617981  1
  F  F12  1  0.72615844  0.43618379  0.50000000  1
  F  F13  1  0.27384156  0.56381621  0.50000000  1
  F  F14  1  0.77384156  0.93618379  0.50000000  1
  F  F15  1  0.22615844  0.06381621  0.50000000  1
  F  F16  1  0.35954333  0.89701086  0.22126972  1
  F  F17  1  0.64045667  0.10298914  0.22126972  1
  F  F18  1  0.14045667  0.39701086  0.77873028  1
  F  F19  1  0.85954333  0.60298914  0.77873028  1
  F  F20  1  0.64045667  0.10298914  0.77873028  1
  F  F21  1  0.35954333  0.89701086  0.77873028  1
  F  F22  1  0.85954333  0.60298914  0.22126972  1
  F  F23  1  0.14045667  0.39701086  0.22126972  1
  F  F24  1  0.60069195  0.97116839  0.50000000  1
  F  F25  1  0.39930805  0.02883161  0.50000000  1
  F  F26  1  0.89930805  0.47116839  0.50000000  1
  F  F27  1  0.10069195  0.52883161  0.50000000  1
  Li  Li28  1  0.83434389  0.80202738  0.22479558  1
  Li  Li29  1  -0.83434389  -0.80202738  0.22479558  1
  Li  Li30  1  -0.33434389  1.30202738  -0.22479558  1
  Li  Li31  1  1.33434389  -0.30202738  -0.22479558  1
  Li  Li32  1  -0.83434389  -0.80202738  -0.22479558  1
  Li  Li33  1  0.83434389  0.80202738  -0.22479558  1
  Li  Li34  1  1.33434389  -0.30202738  0.22479558  1
  Li  Li35  1  -0.33434389  1.30202738  0.22479558  1
  Li  Li36  1  0.00000000  0.00000000  0.50000000  1
  Li  Li37  1  0.50000000  0.50000000  0.50000000  1
  Li  Li38  1  0.00000000  0.50000000  0.50000000  1
  Li  Li39  1  0.50000000  0.00000000  0.50000000  1
  Li  Li40  1  0.00000000  0.00000000  0.00000000  1
  Li  Li41  1  0.50000000  0.50000000  0.00000000  1
  Li  Li42  1  0.00000000  0.50000000  0.21701601  1
  Li  Li43  1  0.50000000  0.00000000  0.78298399  1
  Li  Li44  1  0.00000000  0.50000000  0.78298399  1
  Li  Li45  1  0.50000000  0.00000000  0.21701601  1
  Li  Li46  1  0.82548729  0.11526256  0.63978977  1
  Li  Li47  1  0.17451271  0.88473744  0.63978977  1
  Li  Li48  1  0.67451271  0.61526256  0.36021023  1
  Li  Li49  1  0.32548729  0.38473744  0.36021023  1
  Li  Li50  1  0.17451271  0.88473744  0.36021023  1
  Li  Li51  1  0.82548729  0.11526256  0.36021023  1
  Li  Li52  1  0.32548729  0.38473744  0.63978977  1
  Li  Li53  1  0.67451271  0.61526256  0.63978977  1
  Li  Li54  1  0.00000000  0.50000000  0.00000000  1
  Li  Li55  1  0.50000000  0.00000000  0.00000000  1
