# generated using pymatgen
data_Li2Ca3F8
_symmetry_space_group_name_H-M   'P 1'
_cell_length_a   16.57911536
_cell_length_b   16.57911536
_cell_length_c   9.84277974
_cell_angle_alpha   90.00000000
_cell_angle_beta   90.00000000
_cell_angle_gamma   120.00000000
_symmetry_Int_Tables_number   1
_chemical_formula_structural   Li2Ca3F8
_chemical_formula_sum   'Li16 Ca24 F64'
_cell_volume   2342.99361432
_cell_formula_units_Z   8
loop_
 _symmetry_equiv_pos_site_id
 _symmetry_equiv_pos_as_xyz
  1  'x, y, z'
loop_
 _atom_site_type_symbol
 _atom_site_label
 _atom_site_symmetry_multiplicity
 _atom_site_fract_x
 _atom_site_fract_y
 _atom_site_fract_z
 _atom_site_occupancy
  Ca  Ca0  1  0.71972978  0.51817884  0.11339658  1
  Ca  Ca1  1  0.48182116  0.20155095  0.11339658  1
  Ca  Ca2  1  0.79844905  0.28027022  0.11339658  1
  Ca  Ca3  1  0.48182116  0.28027022  0.88660342  1
  Ca  Ca4  1  0.79844905  0.51817884  0.88660342  1
  Ca  Ca5  1  0.71972978  0.20155095  0.88660342  1
  Ca  Ca6  1  0.71570416  0.64659078  0.24766507  1
  Ca  Ca7  1  0.35340922  0.06911337  0.24766507  1
  Ca  Ca8  1  0.93088663  0.28429584  0.24766507  1
  Ca  Ca9  1  0.35340922  0.28429584  0.75233493  1
  Ca  Ca10  1  0.93088663  0.64659078  0.75233493  1
  Ca  Ca11  1  0.71570416  0.06911337  0.75233493  1
  Ca  Ca12  1  0.27943481  0.23224577  0.24294478  1
  Ca  Ca13  1  0.76775423  0.04718904  0.24294478  1
  Ca  Ca14  1  0.95281096  0.72056519  0.24294478  1
  Ca  Ca15  1  0.76775423  0.72056519  0.75705522  1
  Ca  Ca16  1  0.95281096  0.23224577  0.75705522  1
  Ca  Ca17  1  0.27943481  0.04718904  0.75705522  1
  Ca  Ca18  1  0.16330389  0.97068964  0.87694630  1
  Ca  Ca19  1  0.02931036  0.19261425  0.87694630  1
  Ca  Ca20  1  0.80738575  0.83669611  0.87694630  1
  Ca  Ca21  1  0.02931036  0.83669611  0.12305370  1
  Ca  Ca22  1  0.80738575  0.97068964  0.12305370  1
  Ca  Ca23  1  0.16330389  0.19261425  0.12305370  1
  F  F24  1  0.71627059  0.91883001  0.47256244  1
  F  F25  1  -0.91883001  -0.20255942  0.47256244  1
  F  F26  1  0.20255942  -0.71627059  0.47256244  1
  F  F27  1  -0.91883001  -0.71627059  -0.47256244  1
  F  F28  1  0.20255942  0.91883001  -0.47256244  1
  F  F29  1  0.71627059  -0.20255942  -0.47256244  1
  F  F30  1  0.02809297  0.28449474  0.83292211  1
  F  F31  1  0.71550526  0.74359824  0.83292211  1
  F  F32  1  0.25640176  0.97190703  0.83292211  1
  F  F33  1  0.71550526  0.97190703  0.16707789  1
  F  F34  1  0.25640176  0.28449474  0.16707789  1
  F  F35  1  0.02809297  0.74359824  0.16707789  1
  F  F36  1  0.66666667  0.33333333  0.10438730  1
  F  F37  1  0.66666667  0.33333333  0.89561270  1
  F  F38  1  0.68264045  0.77100085  0.17654294  1
  F  F39  1  0.22899915  0.91163961  0.17654294  1
  F  F40  1  0.08836039  0.31735955  0.17654294  1
  F  F41  1  0.22899915  0.31735955  0.82345706  1
  F  F42  1  0.08836039  0.77100085  0.82345706  1
  F  F43  1  0.68264045  0.91163961  0.82345706  1
  F  F44  1  0.66666667  0.33333333  0.39325890  1
  F  F45  1  0.66666667  0.33333333  0.60674110  1
  F  F46  1  0.33333333  0.66666667  0.50000000  1
  F  F47  1  0.00000000  0.00000000  0.43997332  1
  F  F48  1  0.00000000  0.00000000  0.56002668  1
  F  F49  1  0.30359727  0.89014095  0.77354015  1
  F  F50  1  0.10985905  0.41345633  0.77354015  1
  F  F51  1  0.58654367  0.69640273  0.77354015  1
  F  F52  1  0.10985905  0.69640273  0.22645985  1
  F  F53  1  0.58654367  0.89014095  0.22645985  1
  F  F54  1  0.30359727  0.41345633  0.22645985  1
  F  F55  1  0.15280860  0.84719140  0.00000000  1
  F  F56  1  0.15280860  0.30561719  0.00000000  1
  F  F57  1  0.69438281  0.84719140  0.00000000  1
  F  F58  1  0.00000000  0.00000000  0.00000000  1
  F  F59  1  0.57069437  0.24401877  0.92046905  1
  F  F60  1  0.75598123  0.32667560  0.92046905  1
  F  F61  1  0.67332440  0.42930563  0.92046905  1
  F  F62  1  0.75598123  0.42930563  0.07953095  1
  F  F63  1  0.67332440  0.24401877  0.07953095  1
  F  F64  1  0.57069437  0.32667560  0.07953095  1
  F  F65  1  0.09359405  0.37766915  0.99140233  1
  F  F66  1  0.62233085  0.71592490  0.99140233  1
  F  F67  1  0.28407510  0.90640595  0.99140233  1
  F  F68  1  0.62233085  0.90640595  0.00859767  1
  F  F69  1  0.28407510  0.37766915  0.00859767  1
  F  F70  1  0.09359405  0.71592490  0.00859767  1
  F  F71  1  0.33333333  0.66666667  0.00000000  1
  F  F72  1  0.66666667  0.33333333  0.00000000  1
  F  F73  1  0.95873740  0.84252035  0.73327729  1
  F  F74  1  0.15747965  0.11621705  0.73327729  1
  F  F75  1  0.88378295  0.04126260  0.73327729  1
  F  F76  1  0.15747965  0.04126260  0.26672271  1
  F  F77  1  0.88378295  0.84252035  0.26672271  1
  F  F78  1  0.95873740  0.11621705  0.26672271  1
  F  F79  1  0.99336840  0.31304208  0.85865924  1
  F  F80  1  0.68695792  0.68032632  0.85865924  1
  F  F81  1  0.31967368  0.00663160  0.85865924  1
  F  F82  1  0.68695792  0.00663160  0.14134076  1
  F  F83  1  0.31967368  0.31304208  0.14134076  1
  F  F84  1  0.99336840  0.68032632  0.14134076  1
  F  F85  1  0.30722580  0.69277420  0.50000000  1
  F  F86  1  0.30722580  0.61445160  0.50000000  1
  F  F87  1  0.38554840  0.69277420  0.50000000  1
  Li  Li88  1  0.73676142  0.26323858  0.50000000  1
  Li  Li89  1  0.73676142  0.47352284  0.50000000  1
  Li  Li90  1  0.52647716  0.26323858  0.50000000  1
  Li  Li91  1  0.82422841  0.25924225  0.72695520  1
  Li  Li92  1  0.74075775  0.56498616  0.72695520  1
  Li  Li93  1  0.43501384  0.17577159  0.72695520  1
  Li  Li94  1  0.74075775  0.17577159  0.27304480  1
  Li  Li95  1  0.43501384  0.25924225  0.27304480  1
  Li  Li96  1  0.82422841  0.56498616  0.27304480  1
  Li  Li97  1  0.57920672  0.42079328  0.50000000  1
  Li  Li98  1  0.57920672  0.15841345  0.50000000  1
  Li  Li99  1  0.84158655  0.42079328  0.50000000  1
  Li  Li100  1  0.66666667  0.33333333  0.50000000  1
  Li  Li101  1  0.17117536  0.82882464  0.50000000  1
  Li  Li102  1  0.17117536  0.34235072  0.50000000  1
  Li  Li103  1  0.65764928  0.82882464  0.50000000  1
