# generated using pymatgen
data_Li3ScTiClF
_symmetry_space_group_name_H-M   'P 1'
_cell_length_a   3.33891536
_cell_length_b   3.08358990
_cell_length_c   6.15808726
_cell_angle_alpha   112.84567062
_cell_angle_beta   101.37118838
_cell_angle_gamma   102.17198595
_symmetry_Int_Tables_number   1
_chemical_formula_structural   Li3ScTiClF
_chemical_formula_sum   'Li3 Sc1 Ti1 Cl1 F1'
_cell_volume   54.30660940
_cell_formula_units_Z   1
loop_
 _symmetry_equiv_pos_site_id
 _symmetry_equiv_pos_as_xyz
  1  'x, y, z'
loop_
 _atom_site_type_symbol
 _atom_site_label
 _atom_site_symmetry_multiplicity
 _atom_site_fract_x
 _atom_site_fract_y
 _atom_site_fract_z
 _atom_site_occupancy
  F  F0  1  0.00000000  0.00000000  0.00000000  1
  Sc  Sc1  1  0.50000000  0.50000000  0.50000000  1
  Ti  Ti2  1  0.50000000  0.50000000  0.00000000  1
  Li  Li3  1  0.50000000  0.00000000  0.50000000  1
  Li  Li4  1  0.00000000  0.50000000  0.50000000  1
  Li  Li5  1  0.22049697  0.18784746  0.22432731  1
  Cl  Cl6  1  0.11214593  0.89883527  0.15976215  1
