# generated using pymatgen
data_Li2Y2Sb2P3
_symmetry_space_group_name_H-M   'P 1'
_cell_length_a   4.83778859
_cell_length_b   5.03975957
_cell_length_c   6.91567608
_cell_angle_alpha   94.89213616
_cell_angle_beta   100.11071564
_cell_angle_gamma   108.79766592
_symmetry_Int_Tables_number   1
_chemical_formula_structural   Li2Y2Sb2P3
_chemical_formula_sum   'Li2 Y2 Sb2 P3'
_cell_volume   155.31004473
_cell_formula_units_Z   1
loop_
 _symmetry_equiv_pos_site_id
 _symmetry_equiv_pos_as_xyz
  1  'x, y, z'
loop_
 _atom_site_type_symbol
 _atom_site_label
 _atom_site_symmetry_multiplicity
 _atom_site_fract_x
 _atom_site_fract_y
 _atom_site_fract_z
 _atom_site_occupancy
  P  P0  1  0.00000000  0.00000000  0.00000000  1
  P  P1  1  0.50000000  0.50000000  0.50000000  1
  P  P2  1  0.50000000  0.50000000  0.00000000  1
  Li  Li3  1  0.50000000  0.00000000  0.50000000  1
  Li  Li4  1  0.00000000  0.50000000  0.50000000  1
  Y  Y5  1  0.05353057  0.84975969  0.68637941  1
  Y  Y6  1  0.47951285  0.58129993  0.14923307  1
  Sb  Sb7  1  0.17203689  0.13447767  0.82262621  1
  Sb  Sb8  1  0.94245779  0.44167288  0.42999824  1
