# generated using pymatgen
data_LiF
_symmetry_space_group_name_H-M   'P 1'
_cell_length_a   11.53355473
_cell_length_b   11.53355473
_cell_length_c   8.56608771
_cell_angle_alpha   90.00000000
_cell_angle_beta   90.00000000
_cell_angle_gamma   120.00000000
_symmetry_Int_Tables_number   1
_chemical_formula_structural   LiF
_chemical_formula_sum   'Li31 F31'
_cell_volume   986.82356257
_cell_formula_units_Z   31
loop_
 _symmetry_equiv_pos_site_id
 _symmetry_equiv_pos_as_xyz
  1  'x, y, z'
loop_
 _atom_site_type_symbol
 _atom_site_label
 _atom_site_symmetry_multiplicity
 _atom_site_fract_x
 _atom_site_fract_y
 _atom_site_fract_z
 _atom_site_occupancy
  F  F0  1  0.33333333  0.66666667  -0.00000000  1
  F  F1  1  0.66666667  0.33333333  -0.00000000  1
  F  F2  1  0.30264247  0.11261114  0.25044781  1
  F  F3  1  0.88738886  0.19003133  0.25044781  1
  F  F4  1  0.80996867  0.69735753  0.25044781  1
  F  F5  1  0.30264247  0.11261114  0.74955219  1
  F  F6  1  0.88738886  0.19003133  0.74955219  1
  F  F7  1  0.80996867  0.69735753  0.74955219  1
  F  F8  1  0.11261114  0.30264247  0.74955219  1
  F  F9  1  0.19003133  0.88738886  0.74955219  1
  F  F10  1  0.69735753  0.80996867  0.74955219  1
  F  F11  1  0.11261114  0.30264247  0.25044781  1
  F  F12  1  0.19003133  0.88738886  0.25044781  1
  F  F13  1  0.69735753  0.80996867  0.25044781  1
  F  F14  1  0.35686346  0.00000000  0.26675481  1
  F  F15  1  0.00000000  0.35686346  0.26675481  1
  F  F16  1  0.64313654  0.64313654  0.26675481  1
  F  F17  1  0.35686346  0.00000000  0.73324519  1
  F  F18  1  0.00000000  0.35686346  0.73324519  1
  F  F19  1  0.64313654  0.64313654  0.73324519  1
  F  F20  1  0.95498196  0.00000000  0.50000000  1
  F  F21  1  0.00000000  0.95498196  0.50000000  1
  F  F22  1  0.04501804  0.04501804  0.50000000  1
  F  F23  1  0.25493581  0.00000000  0.50000000  1
  F  F24  1  0.00000000  0.25493581  0.50000000  1
  F  F25  1  0.74506419  0.74506419  0.50000000  1
  F  F26  1  0.33333333  0.66666667  0.35488095  1
  F  F27  1  0.33333333  0.66666667  0.64511905  1
  F  F28  1  0.66666667  0.33333333  0.64511905  1
  F  F29  1  0.66666667  0.33333333  0.35488095  1
  F  F30  1  0.00000000  0.00000000  0.00000000  1
  Li  Li31  1  0.00000000  0.00000000  0.85956845  1
  Li  Li32  1  0.00000000  0.00000000  0.14043155  1
  Li  Li33  1  0.44285439  0.00000000  0.70203852  1
  Li  Li34  1  0.00000000  0.44285439  0.70203852  1
  Li  Li35  1  0.55714561  0.55714561  0.70203852  1
  Li  Li36  1  0.44285439  0.00000000  0.29796148  1
  Li  Li37  1  0.00000000  0.44285439  0.29796148  1
  Li  Li38  1  0.55714561  0.55714561  0.29796148  1
  Li  Li39  1  0.00000000  0.00000000  0.69859856  1
  Li  Li40  1  0.00000000  0.00000000  0.30140144  1
  Li  Li41  1  0.16805155  -0.00000000  0.50000000  1
  Li  Li42  1  0.00000000  0.16805155  0.50000000  1
  Li  Li43  1  0.83194845  0.83194845  0.50000000  1
  Li  Li44  1  0.39216471  0.55805098  0.76661825  1
  Li  Li45  1  -0.55805098  -0.16588627  0.76661825  1
  Li  Li46  1  0.16588627  -0.39216471  0.76661825  1
  Li  Li47  1  0.39216471  0.55805098  -0.76661825  1
  Li  Li48  1  -0.55805098  -0.16588627  -0.76661825  1
  Li  Li49  1  0.16588627  -0.39216471  -0.76661825  1
  Li  Li50  1  0.55805098  0.39216471  -0.76661825  1
  Li  Li51  1  -0.16588627  -0.55805098  -0.76661825  1
  Li  Li52  1  -0.39216471  0.16588627  -0.76661825  1
  Li  Li53  1  0.55805098  0.39216471  0.76661825  1
  Li  Li54  1  -0.16588627  -0.55805098  0.76661825  1
  Li  Li55  1  -0.39216471  0.16588627  0.76661825  1
  Li  Li56  1  0.41434043  0.10352981  0.50000000  1
  Li  Li57  1  0.89647019  0.31081062  0.50000000  1
  Li  Li58  1  0.68918938  0.58565957  0.50000000  1
  Li  Li59  1  0.10352981  0.41434043  0.50000000  1
  Li  Li60  1  0.31081062  0.89647019  0.50000000  1
  Li  Li61  1  0.58565957  0.68918938  0.50000000  1
