# generated using pymatgen
data_LiY2MoPSe
_symmetry_space_group_name_H-M   'P 1'
_cell_length_a   5.09067517
_cell_length_b   5.13904346
_cell_length_c   5.99230697
_cell_angle_alpha   93.57215593
_cell_angle_beta   93.55406319
_cell_angle_gamma   97.72146391
_symmetry_Int_Tables_number   1
_chemical_formula_structural   LiY2MoPSe
_chemical_formula_sum   'Li1 Y2 Mo1 P1 Se1'
_cell_volume   154.64985999
_cell_formula_units_Z   1
loop_
 _symmetry_equiv_pos_site_id
 _symmetry_equiv_pos_as_xyz
  1  'x, y, z'
loop_
 _atom_site_type_symbol
 _atom_site_label
 _atom_site_symmetry_multiplicity
 _atom_site_fract_x
 _atom_site_fract_y
 _atom_site_fract_z
 _atom_site_occupancy
  Se  Se0  1  0.12500000  0.00000000  0.25000000  1
  P  P1  1  0.00000000  0.00000000  0.00000000  1
  Mo  Mo2  1  0.37500000  0.00000000  0.25000000  1
  Li  Li3  1  0.25000000  0.25000000  0.25000000  1
  Y  Y4  1  0.00000000  0.25000000  0.12500000  1
  Y  Y5  1  0.89641015  0.28187527  0.08703021  1
