# generated using pymatgen
data_LiCu3Sb2P
_symmetry_space_group_name_H-M   'P 1'
_cell_length_a   4.62326345
_cell_length_b   4.70403783
_cell_length_c   6.27957154
_cell_angle_alpha   94.79084636
_cell_angle_beta   98.03058820
_cell_angle_gamma   105.47457525
_symmetry_Int_Tables_number   1
_chemical_formula_structural   LiCu3Sb2P
_chemical_formula_sum   'Li1 Cu3 Sb2 P1'
_cell_volume   129.27847856
_cell_formula_units_Z   1
loop_
 _symmetry_equiv_pos_site_id
 _symmetry_equiv_pos_as_xyz
  1  'x, y, z'
loop_
 _atom_site_type_symbol
 _atom_site_label
 _atom_site_symmetry_multiplicity
 _atom_site_fract_x
 _atom_site_fract_y
 _atom_site_fract_z
 _atom_site_occupancy
  Cu  Cu0  1  0.00000000  0.00000000  0.00000000  1
  Cu  Cu1  1  0.50000000  0.50000000  0.50000000  1
  Cu  Cu2  1  0.50000000  0.50000000  0.00000000  1
  P  P3  1  0.50000000  0.00000000  0.50000000  1
  Li  Li4  1  0.00000000  0.50000000  0.50000000  1
  Sb  Sb5  1  0.69285446  0.65255068  0.69858088  1
  Sb  Sb6  1  0.27372187  0.39084714  0.21156299  1
