# generated using pymatgen
data_LiTe4MoAsSe
_symmetry_space_group_name_H-M   'P 1'
_cell_length_a   5.64776729
_cell_length_b   5.55076511
_cell_length_c   7.40993734
_cell_angle_alpha   94.01051776
_cell_angle_beta   98.13186909
_cell_angle_gamma   103.18213564
_symmetry_Int_Tables_number   1
_chemical_formula_structural   LiTe4MoAsSe
_chemical_formula_sum   'Li1 Te4 Mo1 As1 Se1'
_cell_volume   222.63998256
_cell_formula_units_Z   1
loop_
 _symmetry_equiv_pos_site_id
 _symmetry_equiv_pos_as_xyz
  1  'x, y, z'
loop_
 _atom_site_type_symbol
 _atom_site_label
 _atom_site_symmetry_multiplicity
 _atom_site_fract_x
 _atom_site_fract_y
 _atom_site_fract_z
 _atom_site_occupancy
  Se  Se0  1  0.00000000  0.00000000  0.00000000  1
  Te  Te1  1  0.50000000  0.50000000  0.50000000  1
  Te  Te2  1  0.25000000  0.25000000  0.25000000  1
  Te  Te3  1  0.75000000  0.25000000  0.00000000  1
  Te  Te4  1  0.25000000  0.75000000  0.50000000  1
  Mo  Mo5  1  0.12601161  0.98842087  0.49715013  1
  As  As6  1  0.33448105  0.78389790  0.20126722  1
  Li  Li7  1  0.13080192  0.24762650  0.84153021  1
