# generated using pymatgen
data_Li2Y2P3Se2
_symmetry_space_group_name_H-M   'P 1'
_cell_length_a   4.86817780
_cell_length_b   5.02793876
_cell_length_c   6.97357921
_cell_angle_alpha   94.94058757
_cell_angle_beta   100.75957259
_cell_angle_gamma   109.84437665
_symmetry_Int_Tables_number   1
_chemical_formula_structural   Li2Y2P3Se2
_chemical_formula_sum   'Li2 Y2 P3 Se2'
_cell_volume   155.65510279
_cell_formula_units_Z   1
loop_
 _symmetry_equiv_pos_site_id
 _symmetry_equiv_pos_as_xyz
  1  'x, y, z'
loop_
 _atom_site_type_symbol
 _atom_site_label
 _atom_site_symmetry_multiplicity
 _atom_site_fract_x
 _atom_site_fract_y
 _atom_site_fract_z
 _atom_site_occupancy
  P  P0  1  0.12500000  0.00000000  0.25000000  1
  P  P1  1  0.00000000  0.00000000  0.00000000  1
  P  P2  1  0.37500000  0.00000000  0.25000000  1
  Se  Se3  1  0.25000000  0.25000000  0.25000000  1
  Se  Se4  1  0.00000000  0.25000000  0.12500000  1
  Li  Li5  1  0.00980919  0.71650780  0.39093535  1
  Li  Li6  1  0.12999328  0.40026960  0.10046460  1
  Y  Y7  1  0.10058106  0.92873246  0.77655192  1
  Y  Y8  1  0.93618848  0.12502401  0.77911072  1
