# generated using pymatgen
data_Li4TeF2
_symmetry_space_group_name_H-M   'P 1'
_cell_length_a   11.39864608
_cell_length_b   11.39864608
_cell_length_c   25.55588988
_cell_angle_alpha   90.00000000
_cell_angle_beta   90.00000000
_cell_angle_gamma   90.00000000
_symmetry_Int_Tables_number   1
_chemical_formula_structural   Li4TeF2
_chemical_formula_sum   'Li96 Te24 F48'
_cell_volume   3320.45459971
_cell_formula_units_Z   24
loop_
 _symmetry_equiv_pos_site_id
 _symmetry_equiv_pos_as_xyz
  1  'x, y, z'
loop_
 _atom_site_type_symbol
 _atom_site_label
 _atom_site_symmetry_multiplicity
 _atom_site_fract_x
 _atom_site_fract_y
 _atom_site_fract_z
 _atom_site_occupancy
  F  F0  1  0.56827377  0.70265653  0.46817803  1
  F  F1  1  -0.06827377  -0.70265653  0.96817803  1
  F  F2  1  -0.45265653  1.31827377  0.71817803  1
  F  F3  1  0.95265653  -0.31827377  1.21817803  1
  F  F4  1  -0.06827377  0.70265653  -0.46817803  1
  F  F5  1  0.56827377  -0.70265653  0.03182197  1
  F  F6  1  0.95265653  1.31827377  0.28182197  1
  F  F7  1  -0.45265653  -0.31827377  -0.21817803  1
  F  F8  1  -0.56827377  -0.70265653  -0.46817803  1
  F  F9  1  1.06827377  0.70265653  0.03182197  1
  F  F10  1  1.45265653  -0.31827377  0.28182197  1
  F  F11  1  0.04734347  1.31827377  -0.21817803  1
  F  F12  1  1.06827377  -0.70265653  0.46817803  1
  F  F13  1  -0.56827377  0.70265653  0.96817803  1
  F  F14  1  0.04734347  -0.31827377  0.71817803  1
  F  F15  1  1.45265653  1.31827377  1.21817803  1
  F  F16  1  1.06827377  1.20265653  0.96817803  1
  F  F17  1  0.43172623  -0.20265653  1.46817803  1
  F  F18  1  0.04734347  1.81827377  1.21817803  1
  F  F19  1  1.45265653  0.18172623  1.71817803  1
  F  F20  1  0.43172623  1.20265653  0.03182197  1
  F  F21  1  1.06827377  -0.20265653  0.53182197  1
  F  F22  1  1.45265653  1.81827377  0.78182197  1
  F  F23  1  0.04734347  0.18172623  0.28182197  1
  F  F24  1  -0.06827377  -0.20265653  0.03182197  1
  F  F25  1  1.56827377  1.20265653  0.53182197  1
  F  F26  1  1.95265653  0.18172623  0.78182197  1
  F  F27  1  0.54734347  1.81827377  0.28182197  1
  F  F28  1  1.56827377  -0.20265653  0.96817803  1
  F  F29  1  -0.06827377  1.20265653  1.46817803  1
  F  F30  1  0.54734347  0.18172623  1.21817803  1
  F  F31  1  1.95265653  1.81827377  1.71817803  1
  F  F32  1  0.00000000  0.25000000  0.11123066  1
  F  F33  1  0.00000000  0.75000000  0.36123066  1
  F  F34  1  0.50000000  0.25000000  0.88876934  1
  F  F35  1  0.50000000  0.75000000  0.63876934  1
  F  F36  1  0.00000000  0.75000000  0.88876934  1
  F  F37  1  0.00000000  0.25000000  0.63876934  1
  F  F38  1  0.50000000  0.75000000  0.11123066  1
  F  F39  1  0.50000000  0.25000000  0.36123066  1
  F  F40  1  0.50000000  0.75000000  0.61123066  1
  F  F41  1  0.50000000  0.25000000  0.86123066  1
  F  F42  1  0.00000000  0.75000000  0.38876934  1
  F  F43  1  0.00000000  0.25000000  0.13876934  1
  F  F44  1  0.50000000  0.25000000  0.38876934  1
  F  F45  1  0.50000000  0.75000000  0.13876934  1
  F  F46  1  0.00000000  0.25000000  0.61123066  1
  F  F47  1  0.00000000  0.75000000  0.86123066  1
  Li  Li48  1  0.79204405  0.86859461  0.16236572  1
  Li  Li49  1  0.70795595  0.13140539  0.66236572  1
  Li  Li50  1  0.38140539  0.54204405  0.41236572  1
  Li  Li51  1  0.11859461  0.45795595  0.91236572  1
  Li  Li52  1  0.70795595  0.86859461  0.83763428  1
  Li  Li53  1  0.79204405  0.13140539  0.33763428  1
  Li  Li54  1  0.11859461  0.54204405  0.58763428  1
  Li  Li55  1  0.38140539  0.45795595  0.08763428  1
  Li  Li56  1  0.20795595  0.13140539  0.83763428  1
  Li  Li57  1  0.29204405  0.86859461  0.33763428  1
  Li  Li58  1  0.61859461  0.45795595  0.58763428  1
  Li  Li59  1  0.88140539  0.54204405  0.08763428  1
  Li  Li60  1  0.29204405  0.13140539  0.16236572  1
  Li  Li61  1  0.20795595  0.86859461  0.66236572  1
  Li  Li62  1  0.88140539  0.45795595  0.41236572  1
  Li  Li63  1  0.61859461  0.54204405  0.91236572  1
  Li  Li64  1  0.29204405  0.36859461  0.66236572  1
  Li  Li65  1  0.20795595  0.63140539  0.16236572  1
  Li  Li66  1  0.88140539  0.04204405  0.91236572  1
  Li  Li67  1  0.61859461  0.95795595  0.41236572  1
  Li  Li68  1  0.20795595  0.36859461  0.33763428  1
  Li  Li69  1  0.29204405  0.63140539  0.83763428  1
  Li  Li70  1  0.61859461  0.04204405  0.08763428  1
  Li  Li71  1  0.88140539  0.95795595  0.58763428  1
  Li  Li72  1  0.70795595  0.63140539  0.33763428  1
  Li  Li73  1  0.79204405  0.36859461  0.83763428  1
  Li  Li74  1  0.11859461  0.95795595  0.08763428  1
  Li  Li75  1  0.38140539  0.04204405  0.58763428  1
  Li  Li76  1  0.79204405  0.63140539  0.66236572  1
  Li  Li77  1  0.70795595  0.36859461  0.16236572  1
  Li  Li78  1  0.38140539  0.95795595  0.91236572  1
  Li  Li79  1  0.11859461  0.04204405  0.41236572  1
  Li  Li80  1  0.00000000  0.00000000  0.00000000  1
  Li  Li81  1  0.50000000  0.00000000  0.50000000  1
  Li  Li82  1  0.25000000  0.75000000  0.25000000  1
  Li  Li83  1  0.25000000  0.25000000  0.75000000  1
  Li  Li84  1  0.50000000  0.00000000  0.00000000  1
  Li  Li85  1  0.00000000  0.00000000  0.50000000  1
  Li  Li86  1  0.25000000  0.75000000  0.75000000  1
  Li  Li87  1  0.25000000  0.25000000  0.25000000  1
  Li  Li88  1  0.50000000  0.50000000  0.50000000  1
  Li  Li89  1  0.00000000  0.50000000  0.00000000  1
  Li  Li90  1  0.75000000  0.25000000  0.75000000  1
  Li  Li91  1  0.75000000  0.75000000  0.25000000  1
  Li  Li92  1  0.00000000  0.50000000  0.50000000  1
  Li  Li93  1  0.50000000  0.50000000  0.00000000  1
  Li  Li94  1  0.75000000  0.25000000  0.25000000  1
  Li  Li95  1  0.75000000  0.75000000  0.75000000  1
  Li  Li96  1  0.51746293  0.00000000  0.25000000  1
  Li  Li97  1  0.98253707  0.00000000  0.75000000  1
  Li  Li98  1  0.25000000  0.26746293  0.50000000  1
  Li  Li99  1  0.25000000  0.73253707  0.00000000  1
  Li  Li100  1  0.48253707  0.00000000  0.75000000  1
  Li  Li101  1  0.01746293  0.00000000  0.25000000  1
  Li  Li102  1  0.75000000  0.73253707  0.50000000  1
  Li  Li103  1  0.75000000  0.26746293  0.00000000  1
  Li  Li104  1  0.01746293  0.50000000  0.75000000  1
  Li  Li105  1  0.48253707  0.50000000  0.25000000  1
  Li  Li106  1  0.75000000  0.76746293  0.00000000  1
  Li  Li107  1  0.75000000  0.23253707  0.50000000  1
  Li  Li108  1  0.98253707  0.50000000  0.25000000  1
  Li  Li109  1  0.51746293  0.50000000  0.75000000  1
  Li  Li110  1  0.25000000  0.23253707  -0.00000000  1
  Li  Li111  1  0.25000000  0.76746293  0.50000000  1
  Li  Li112  1  0.11818037  0.41673139  0.41406934  1
  Li  Li113  1  0.38181963  0.58326861  0.91406934  1
  Li  Li114  1  0.83326861  0.86818037  0.66406934  1
  Li  Li115  1  0.66673139  0.13181963  0.16406934  1
  Li  Li116  1  0.38181963  0.41673139  0.58593066  1
  Li  Li117  1  0.11818037  0.58326861  0.08593066  1
  Li  Li118  1  0.66673139  0.86818037  0.33593066  1
  Li  Li119  1  0.83326861  0.13181963  0.83593066  1
  Li  Li120  1  0.88181963  0.58326861  0.58593066  1
  Li  Li121  1  0.61818037  0.41673139  0.08593066  1
  Li  Li122  1  0.16673139  0.13181963  0.33593066  1
  Li  Li123  1  0.33326861  0.86818037  0.83593066  1
  Li  Li124  1  0.61818037  0.58326861  0.41406934  1
  Li  Li125  1  0.88181963  0.41673139  0.91406934  1
  Li  Li126  1  0.33326861  0.13181963  0.66406934  1
  Li  Li127  1  0.16673139  0.86818037  0.16406934  1
  Li  Li128  1  0.61818037  0.91673139  0.91406934  1
  Li  Li129  1  0.88181963  0.08326861  0.41406934  1
  Li  Li130  1  0.33326861  0.36818037  0.16406934  1
  Li  Li131  1  0.16673139  0.63181963  0.66406934  1
  Li  Li132  1  0.88181963  0.91673139  0.08593066  1
  Li  Li133  1  0.61818037  0.08326861  0.58593066  1
  Li  Li134  1  0.16673139  0.36818037  0.83593066  1
  Li  Li135  1  0.33326861  0.63181963  0.33593066  1
  Li  Li136  1  0.38181963  0.08326861  0.08593066  1
  Li  Li137  1  0.11818037  0.91673139  0.58593066  1
  Li  Li138  1  0.66673139  0.63181963  0.83593066  1
  Li  Li139  1  0.83326861  0.36818037  0.33593066  1
  Li  Li140  1  0.11818037  0.08326861  0.91406934  1
  Li  Li141  1  0.38181963  0.91673139  0.41406934  1
  Li  Li142  1  0.83326861  0.63181963  0.16406934  1
  Li  Li143  1  0.66673139  0.36818037  0.66406934  1
  Te  Te144  1  0.78876670  0.03876670  0.12500000  1
  Te  Te145  1  0.71123330  0.96123330  0.62500000  1
  Te  Te146  1  0.21123330  0.53876670  0.37500000  1
  Te  Te147  1  0.28876670  0.46123330  0.87500000  1
  Te  Te148  1  0.21123330  0.96123330  0.87500000  1
  Te  Te149  1  0.28876670  0.03876670  0.37500000  1
  Te  Te150  1  0.78876670  0.46123330  0.62500000  1
  Te  Te151  1  0.71123330  0.53876670  0.12500000  1
  Te  Te152  1  0.28876670  0.53876670  0.62500000  1
  Te  Te153  1  0.21123330  0.46123330  0.12500000  1
  Te  Te154  1  0.71123330  0.03876670  0.87500000  1
  Te  Te155  1  0.78876670  0.96123330  0.37500000  1
  Te  Te156  1  0.71123330  0.46123330  0.37500000  1
  Te  Te157  1  0.78876670  0.53876670  0.87500000  1
  Te  Te158  1  0.28876670  0.96123330  0.12500000  1
  Te  Te159  1  0.21123330  0.03876670  0.62500000  1
  Te  Te160  1  0.00000000  0.25000000  0.37500000  1
  Te  Te161  1  0.00000000  0.75000000  0.62500000  1
  Te  Te162  1  0.50000000  0.25000000  0.62500000  1
  Te  Te163  1  0.50000000  0.75000000  0.37500000  1
  Te  Te164  1  0.50000000  0.75000000  0.87500000  1
  Te  Te165  1  0.50000000  0.25000000  0.12500000  1
  Te  Te166  1  0.00000000  0.75000000  0.12500000  1
  Te  Te167  1  0.00000000  0.25000000  0.87500000  1
