# generated using pymatgen
data_Li4TeF2
_symmetry_space_group_name_H-M   'P 1'
_cell_length_a   8.65019523
_cell_length_b   8.65019523
_cell_length_c   35.39187938
_cell_angle_alpha   90.00000000
_cell_angle_beta   90.00000000
_cell_angle_gamma   120.00000000
_symmetry_Int_Tables_number   1
_chemical_formula_structural   Li4TeF2
_chemical_formula_sum   'Li96 Te24 F48'
_cell_volume   2293.43309791
_cell_formula_units_Z   24
loop_
 _symmetry_equiv_pos_site_id
 _symmetry_equiv_pos_as_xyz
  1  'x, y, z'
loop_
 _atom_site_type_symbol
 _atom_site_label
 _atom_site_symmetry_multiplicity
 _atom_site_fract_x
 _atom_site_fract_y
 _atom_site_fract_z
 _atom_site_occupancy
  F  F0  1  0.08275156  0.67139677  0.18137559  1
  F  F1  1  -0.67139677  -0.58864521  0.18137559  1
  F  F2  1  0.58864521  -0.08275156  0.18137559  1
  F  F3  1  0.67139677  0.08275156  0.31862441  1
  F  F4  1  -0.58864521  -0.67139677  0.31862441  1
  F  F5  1  -0.08275156  0.58864521  0.31862441  1
  F  F6  1  -0.08275156  -0.67139677  -0.18137559  1
  F  F7  1  0.67139677  0.58864521  -0.18137559  1
  F  F8  1  -0.58864521  0.08275156  -0.18137559  1
  F  F9  1  -0.67139677  -0.08275156  0.68137559  1
  F  F10  1  0.58864521  0.67139677  0.68137559  1
  F  F11  1  0.08275156  -0.58864521  0.68137559  1
  F  F12  1  0.74941822  1.00473010  0.51470893  1
  F  F13  1  -0.00473010  -0.25531188  0.51470893  1
  F  F14  1  1.25531188  0.25058178  0.51470893  1
  F  F15  1  1.33806343  0.41608489  0.65195774  1
  F  F16  1  0.07802146  -0.33806343  0.65195774  1
  F  F17  1  0.58391511  0.92197854  0.65195774  1
  F  F18  1  0.58391511  -0.33806343  0.15195774  1
  F  F19  1  1.33806343  0.92197854  0.15195774  1
  F  F20  1  0.07802146  0.41608489  0.15195774  1
  F  F21  1  -0.00473010  0.25058178  1.01470893  1
  F  F22  1  1.25531188  1.00473010  1.01470893  1
  F  F23  1  0.74941822  -0.25531188  1.01470893  1
  F  F24  1  0.41608489  1.33806343  0.84804226  1
  F  F25  1  -0.33806343  0.07802146  0.84804226  1
  F  F26  1  0.92197854  0.58391511  0.84804226  1
  F  F27  1  1.00473010  0.74941822  0.98529107  1
  F  F28  1  -0.25531188  -0.00473010  0.98529107  1
  F  F29  1  0.25058178  1.25531188  0.98529107  1
  F  F30  1  0.25058178  -0.00473010  0.48529107  1
  F  F31  1  1.00473010  1.25531188  0.48529107  1
  F  F32  1  -0.25531188  0.74941822  0.48529107  1
  F  F33  1  -0.33806343  0.58391511  1.34804226  1
  F  F34  1  0.92197854  1.33806343  1.34804226  1
  F  F35  1  0.41608489  0.07802146  1.34804226  1
  F  F36  1  0.00000000  0.00000000  0.71811070  1
  F  F37  1  0.00000000  0.00000000  0.78188930  1
  F  F38  1  0.00000000  0.00000000  0.28188930  1
  F  F39  1  0.00000000  0.00000000  0.21811070  1
  F  F40  1  0.66666667  0.33333333  0.05144404  1
  F  F41  1  0.66666667  0.33333333  0.11522263  1
  F  F42  1  0.66666667  0.33333333  0.61522263  1
  F  F43  1  0.66666667  0.33333333  0.55144404  1
  F  F44  1  0.33333333  0.66666667  0.38477737  1
  F  F45  1  0.33333333  0.66666667  0.44855596  1
  F  F46  1  0.33333333  0.66666667  0.94855596  1
  F  F47  1  0.33333333  0.66666667  0.88477737  1
  Li  Li48  1  0.50850812  0.00000000  0.25000000  1
  Li  Li49  1  0.00000000  0.50850812  0.25000000  1
  Li  Li50  1  0.49149188  0.49149188  0.25000000  1
  Li  Li51  1  0.49149188  0.00000000  0.75000000  1
  Li  Li52  1  0.00000000  0.49149188  0.75000000  1
  Li  Li53  1  0.50850812  0.50850812  0.75000000  1
  Li  Li54  1  0.17517479  0.33333333  0.58333333  1
  Li  Li55  1  0.66666667  0.84184145  0.58333333  1
  Li  Li56  1  0.15815855  0.82482521  0.58333333  1
  Li  Li57  1  0.15815855  0.33333333  0.08333333  1
  Li  Li58  1  0.66666667  0.82482521  0.08333333  1
  Li  Li59  1  0.17517479  0.84184145  0.08333333  1
  Li  Li60  1  0.84184145  0.66666667  0.91666667  1
  Li  Li61  1  0.33333333  0.17517479  0.91666667  1
  Li  Li62  1  0.82482521  0.15815855  0.91666667  1
  Li  Li63  1  0.82482521  0.66666667  0.41666667  1
  Li  Li64  1  0.33333333  0.15815855  0.41666667  1
  Li  Li65  1  0.84184145  0.17517479  0.41666667  1
  Li  Li66  1  0.00000000  0.00000000  0.00000000  1
  Li  Li67  1  0.00000000  0.00000000  0.50000000  1
  Li  Li68  1  0.66666667  0.33333333  0.33333333  1
  Li  Li69  1  0.66666667  0.33333333  0.83333333  1
  Li  Li70  1  0.33333333  0.66666667  0.66666667  1
  Li  Li71  1  0.33333333  0.66666667  0.16666667  1
  Li  Li72  1  0.12526493  0.44858437  0.52954745  1
  Li  Li73  1  0.55141563  0.67668056  0.52954745  1
  Li  Li74  1  0.32331944  0.87473507  0.52954745  1
  Li  Li75  1  0.44858437  0.12526493  0.97045255  1
  Li  Li76  1  0.67668056  0.55141563  0.97045255  1
  Li  Li77  1  0.87473507  0.32331944  0.97045255  1
  Li  Li78  1  0.87473507  0.55141563  0.47045255  1
  Li  Li79  1  0.44858437  0.32331944  0.47045255  1
  Li  Li80  1  0.67668056  0.12526493  0.47045255  1
  Li  Li81  1  0.55141563  0.87473507  0.02954745  1
  Li  Li82  1  0.32331944  0.44858437  0.02954745  1
  Li  Li83  1  0.12526493  0.67668056  0.02954745  1
  Li  Li84  1  0.79193159  0.78191770  0.86288079  1
  Li  Li85  1  0.21808230  0.01001389  0.86288079  1
  Li  Li86  1  0.98998611  0.20806841  0.86288079  1
  Li  Li87  1  0.11525104  0.45859826  0.30378588  1
  Li  Li88  1  0.34334722  0.88474896  0.30378588  1
  Li  Li89  1  0.54140174  0.65665278  0.30378588  1
  Li  Li90  1  0.54140174  0.88474896  0.80378588  1
  Li  Li91  1  0.11525104  0.65665278  0.80378588  1
  Li  Li92  1  0.34334722  0.45859826  0.80378588  1
  Li  Li93  1  0.21808230  0.20806841  0.36288079  1
  Li  Li94  1  0.98998611  0.78191770  0.36288079  1
  Li  Li95  1  0.79193159  0.01001389  0.36288079  1
  Li  Li96  1  0.45859826  0.11525104  0.19621412  1
  Li  Li97  1  0.88474896  0.34334722  0.19621412  1
  Li  Li98  1  0.65665278  0.54140174  0.19621412  1
  Li  Li99  1  0.78191770  0.79193159  0.63711921  1
  Li  Li100  1  0.01001389  0.21808230  0.63711921  1
  Li  Li101  1  0.20806841  0.98998611  0.63711921  1
  Li  Li102  1  0.20806841  0.21808230  0.13711921  1
  Li  Li103  1  0.78191770  0.98998611  0.13711921  1
  Li  Li104  1  0.01001389  0.79193159  0.13711921  1
  Li  Li105  1  0.88474896  0.54140174  0.69621412  1
  Li  Li106  1  0.65665278  0.11525104  0.69621412  1
  Li  Li107  1  0.45859826  0.34334722  0.69621412  1
  Li  Li108  1  0.88331614  0.47919643  0.42100526  1
  Li  Li109  1  0.52080357  0.40411971  0.42100526  1
  Li  Li110  1  0.59588029  0.11668386  0.42100526  1
  Li  Li111  1  0.47919643  0.88331614  0.07899474  1
  Li  Li112  1  0.40411971  0.52080357  0.07899474  1
  Li  Li113  1  0.11668386  0.59588029  0.07899474  1
  Li  Li114  1  0.11668386  0.52080357  0.57899474  1
  Li  Li115  1  0.47919643  0.59588029  0.57899474  1
  Li  Li116  1  0.40411971  0.88331614  0.57899474  1
  Li  Li117  1  0.52080357  0.11668386  0.92100526  1
  Li  Li118  1  0.59588029  0.47919643  0.92100526  1
  Li  Li119  1  0.88331614  0.40411971  0.92100526  1
  Li  Li120  1  0.54998280  0.81252976  0.75433859  1
  Li  Li121  1  0.18747024  0.73745304  0.75433859  1
  Li  Li122  1  0.26254696  0.45001720  0.75433859  1
  Li  Li123  1  0.14586309  0.21664947  0.41232808  1
  Li  Li124  1  0.07078638  0.85413691  0.41232808  1
  Li  Li125  1  0.78335053  0.92921362  0.41232808  1
  Li  Li126  1  0.78335053  0.85413691  0.91232808  1
  Li  Li127  1  0.14586309  0.92921362  0.91232808  1
  Li  Li128  1  0.07078638  0.21664947  0.91232808  1
  Li  Li129  1  0.18747024  0.45001720  0.25433859  1
  Li  Li130  1  0.26254696  0.81252976  0.25433859  1
  Li  Li131  1  0.54998280  0.73745304  0.25433859  1
  Li  Li132  1  0.21664947  0.14586309  0.08767192  1
  Li  Li133  1  0.85413691  0.07078638  0.08767192  1
  Li  Li134  1  0.92921362  0.78335053  0.08767192  1
  Li  Li135  1  0.81252976  0.54998280  0.74566141  1
  Li  Li136  1  0.73745304  0.18747024  0.74566141  1
  Li  Li137  1  0.45001720  0.26254696  0.74566141  1
  Li  Li138  1  0.45001720  0.18747024  0.24566141  1
  Li  Li139  1  0.81252976  0.26254696  0.24566141  1
  Li  Li140  1  0.73745304  0.54998280  0.24566141  1
  Li  Li141  1  0.85413691  0.78335053  0.58767192  1
  Li  Li142  1  0.92921362  0.14586309  0.58767192  1
  Li  Li143  1  0.21664947  0.07078638  0.58767192  1
  Te  Te144  1  0.00000000  0.00000000  0.25000000  1
  Te  Te145  1  0.00000000  0.00000000  0.75000000  1
  Te  Te146  1  0.66666667  0.33333333  0.58333333  1
  Te  Te147  1  0.66666667  0.33333333  0.08333333  1
  Te  Te148  1  0.33333333  0.66666667  0.91666667  1
  Te  Te149  1  0.33333333  0.66666667  0.41666667  1
  Te  Te150  1  0.50000000  0.00000000  -0.00000000  1
  Te  Te151  1  0.00000000  0.50000000  0.00000000  1
  Te  Te152  1  0.50000000  0.50000000  0.00000000  1
  Te  Te153  1  0.00000000  0.50000000  0.50000000  1
  Te  Te154  1  0.50000000  0.00000000  0.50000000  1
  Te  Te155  1  0.50000000  0.50000000  0.50000000  1
  Te  Te156  1  0.16666667  0.33333333  0.33333333  1
  Te  Te157  1  0.66666667  0.83333333  0.33333333  1
  Te  Te158  1  0.16666667  0.83333333  0.33333333  1
  Te  Te159  1  0.66666667  0.83333333  0.83333333  1
  Te  Te160  1  0.16666667  0.33333333  0.83333333  1
  Te  Te161  1  0.16666667  0.83333333  0.83333333  1
  Te  Te162  1  0.83333333  0.66666667  0.66666667  1
  Te  Te163  1  0.33333333  0.16666667  0.66666667  1
  Te  Te164  1  0.83333333  0.16666667  0.66666667  1
  Te  Te165  1  0.33333333  0.16666667  0.16666667  1
  Te  Te166  1  0.83333333  0.66666667  0.16666667  1
  Te  Te167  1  0.83333333  0.16666667  0.16666667  1
