# generated using pymatgen
data_LiF
_symmetry_space_group_name_H-M   'P 1'
_cell_length_a   9.82716311
_cell_length_b   9.82716311
_cell_length_c   9.13985515
_cell_angle_alpha   90.00000000
_cell_angle_beta   90.00000000
_cell_angle_gamma   120.00000000
_symmetry_Int_Tables_number   1
_chemical_formula_structural   LiF
_chemical_formula_sum   'Li42 F42'
_cell_volume   764.40984774
_cell_formula_units_Z   42
loop_
 _symmetry_equiv_pos_site_id
 _symmetry_equiv_pos_as_xyz
  1  'x, y, z'
loop_
 _atom_site_type_symbol
 _atom_site_label
 _atom_site_symmetry_multiplicity
 _atom_site_fract_x
 _atom_site_fract_y
 _atom_site_fract_z
 _atom_site_occupancy
  F  F0  1  0.00000000  0.00000000  0.25000000  1
  F  F1  1  0.00000000  0.00000000  0.75000000  1
  F  F2  1  0.76018024  0.65612874  0.86973531  1
  F  F3  1  0.34387126  0.10405150  0.86973531  1
  F  F4  1  0.89594850  0.23981976  0.86973531  1
  F  F5  1  0.23981976  0.34387126  0.36973531  1
  F  F6  1  0.65612874  0.89594850  0.36973531  1
  F  F7  1  0.10405150  0.76018024  0.36973531  1
  F  F8  1  0.23981976  0.34387126  0.13026469  1
  F  F9  1  0.65612874  0.89594850  0.13026469  1
  F  F10  1  0.10405150  0.76018024  0.13026469  1
  F  F11  1  0.76018024  0.65612874  0.63026469  1
  F  F12  1  0.34387126  0.10405150  0.63026469  1
  F  F13  1  0.89594850  0.23981976  0.63026469  1
  F  F14  1  0.13177101  0.96753319  0.38184082  1
  F  F15  1  0.03246681  0.16423781  0.38184082  1
  F  F16  1  0.83576219  0.86822899  0.38184082  1
  F  F17  1  0.86822899  0.03246681  0.88184082  1
  F  F18  1  0.96753319  0.83576219  0.88184082  1
  F  F19  1  0.16423781  0.13177101  0.88184082  1
  F  F20  1  0.86822899  0.03246681  0.61815918  1
  F  F21  1  0.96753319  0.83576219  0.61815918  1
  F  F22  1  0.16423781  0.13177101  0.61815918  1
  F  F23  1  0.13177101  0.96753319  0.11815918  1
  F  F24  1  0.03246681  0.16423781  0.11815918  1
  F  F25  1  0.83576219  0.86822899  0.11815918  1
  F  F26  1  0.21774617  0.25755313  0.55359245  1
  F  F27  1  0.74244687  0.96019304  0.55359245  1
  F  F28  1  0.03980696  0.78225383  0.55359245  1
  F  F29  1  0.78225383  0.74244687  0.05359245  1
  F  F30  1  0.25755313  0.03980696  0.05359245  1
  F  F31  1  0.96019304  0.21774617  0.05359245  1
  F  F32  1  0.78225383  0.74244687  0.44640755  1
  F  F33  1  0.25755313  0.03980696  0.44640755  1
  F  F34  1  0.96019304  0.21774617  0.44640755  1
  F  F35  1  0.21774617  0.25755313  0.94640755  1
  F  F36  1  0.74244687  0.96019304  0.94640755  1
  F  F37  1  0.03980696  0.78225383  0.94640755  1
  F  F38  1  0.33333333  0.66666667  0.58947491  1
  F  F39  1  0.66666667  0.33333333  0.08947491  1
  F  F40  1  0.66666667  0.33333333  0.41052509  1
  F  F41  1  0.33333333  0.66666667  0.91052509  1
  Li  Li42  1  0.31507221  0.44727511  0.25000000  1
  Li  Li43  1  0.55272489  0.86779710  0.25000000  1
  Li  Li44  1  0.13220290  0.68492779  0.25000000  1
  Li  Li45  1  0.68492779  0.55272489  0.75000000  1
  Li  Li46  1  0.44727511  0.13220290  0.75000000  1
  Li  Li47  1  0.86779710  0.31507221  0.75000000  1
  Li  Li48  1  0.42919870  0.96330108  0.86703616  1
  Li  Li49  1  -0.96330108  -0.53410238  0.86703616  1
  Li  Li50  1  0.53410238  -0.42919870  0.86703616  1
  Li  Li51  1  -0.42919870  -0.96330108  1.36703616  1
  Li  Li52  1  0.96330108  0.53410238  1.36703616  1
  Li  Li53  1  -0.53410238  0.42919870  1.36703616  1
  Li  Li54  1  -0.42919870  -0.96330108  -0.86703616  1
  Li  Li55  1  0.96330108  0.53410238  -0.86703616  1
  Li  Li56  1  -0.53410238  0.42919870  -0.86703616  1
  Li  Li57  1  0.42919870  0.96330108  -0.36703616  1
  Li  Li58  1  -0.96330108  -0.53410238  -0.36703616  1
  Li  Li59  1  0.53410238  -0.42919870  -0.36703616  1
  Li  Li60  1  0.00000000  0.00000000  0.00000000  1
  Li  Li61  1  0.00000000  0.00000000  0.50000000  1
  Li  Li62  1  0.66666667  0.33333333  0.25000000  1
  Li  Li63  1  0.33333333  0.66666667  0.75000000  1
  Li  Li64  1  0.24133622  0.66908195  0.51238737  1
  Li  Li65  1  0.33091805  0.57225427  0.51238737  1
  Li  Li66  1  0.42774573  0.75866378  0.51238737  1
  Li  Li67  1  0.75866378  0.33091805  0.01238737  1
  Li  Li68  1  0.66908195  0.42774573  0.01238737  1
  Li  Li69  1  0.57225427  0.24133622  0.01238737  1
  Li  Li70  1  0.75866378  0.33091805  0.48761263  1
  Li  Li71  1  0.66908195  0.42774573  0.48761263  1
  Li  Li72  1  0.57225427  0.24133622  0.48761263  1
  Li  Li73  1  0.24133622  0.66908195  0.98761263  1
  Li  Li74  1  0.33091805  0.57225427  0.98761263  1
  Li  Li75  1  0.42774573  0.75866378  0.98761263  1
  Li  Li76  1  0.50000000  0.00000000  -0.00000000  1
  Li  Li77  1  0.00000000  0.50000000  0.00000000  1
  Li  Li78  1  0.50000000  0.50000000  0.00000000  1
  Li  Li79  1  0.50000000  0.00000000  0.50000000  1
  Li  Li80  1  0.00000000  0.50000000  0.50000000  1
  Li  Li81  1  0.50000000  0.50000000  0.50000000  1
  Li  Li82  1  0.33333333  0.66666667  0.25000000  1
  Li  Li83  1  0.66666667  0.33333333  0.75000000  1
