# generated using pymatgen
data_Li3Y2P3Se2
_symmetry_space_group_name_H-M   'P 1'
_cell_length_a   5.21938059
_cell_length_b   5.53880962
_cell_length_c   7.19330860
_cell_angle_alpha   94.50684061
_cell_angle_beta   99.81496188
_cell_angle_gamma   108.10218750
_symmetry_Int_Tables_number   1
_chemical_formula_structural   Li3Y2P3Se2
_chemical_formula_sum   'Li3 Y2 P3 Se2'
_cell_volume   192.83600108
_cell_formula_units_Z   1
loop_
 _symmetry_equiv_pos_site_id
 _symmetry_equiv_pos_as_xyz
  1  'x, y, z'
loop_
 _atom_site_type_symbol
 _atom_site_label
 _atom_site_symmetry_multiplicity
 _atom_site_fract_x
 _atom_site_fract_y
 _atom_site_fract_z
 _atom_site_occupancy
  Se  Se0  1  0.00000000  0.00000000  0.00000000  1
  Se  Se1  1  0.50000000  0.50000000  0.50000000  1
  Y  Y2  1  0.25000000  0.25000000  0.25000000  1
  Y  Y3  1  0.75000000  0.25000000  0.00000000  1
  P  P4  1  0.25000000  0.75000000  0.50000000  1
  P  P5  1  0.44862596  0.59945112  0.68282271  1
  P  P6  1  0.60014336  0.11500321  0.63363670  1
  Li  Li7  1  0.60437438  0.33048091  0.18630545  1
  Li  Li8  1  0.57419351  0.06533239  0.34092683  1
  Li  Li9  1  0.48967092  0.50767229  0.85047007  1
