# generated using pymatgen
data_Li3(YP)2
_symmetry_space_group_name_H-M   'P 1'
_cell_length_a   4.92873959
_cell_length_b   5.09432105
_cell_length_c   6.98854237
_cell_angle_alpha   94.76658648
_cell_angle_beta   100.11731820
_cell_angle_gamma   108.73253396
_symmetry_Int_Tables_number   1
_chemical_formula_structural   Li3(YP)2
_chemical_formula_sum   'Li3 Y2 P2'
_cell_volume   161.75122522
_cell_formula_units_Z   1
loop_
 _symmetry_equiv_pos_site_id
 _symmetry_equiv_pos_as_xyz
  1  'x, y, z'
loop_
 _atom_site_type_symbol
 _atom_site_label
 _atom_site_symmetry_multiplicity
 _atom_site_fract_x
 _atom_site_fract_y
 _atom_site_fract_z
 _atom_site_occupancy
  Y  Y0  1  0.00000000  0.00000000  0.00000000  1
  Y  Y1  1  0.50000000  0.50000000  0.50000000  1
  P  P2  1  0.50000000  0.50000000  0.00000000  1
  P  P3  1  0.50000000  0.00000000  0.50000000  1
  Li  Li4  1  0.00000000  0.50000000  0.50000000  1
  Li  Li5  1  0.98201488  0.35231437  0.02807472  1
  Li  Li6  1  0.79904572  0.65553498  0.00463226  1
