# generated using pymatgen
data_Li4TeF2
_symmetry_space_group_name_H-M   'P 1'
_cell_length_a   14.62625463
_cell_length_b   14.62625463
_cell_length_c   14.62625463
_cell_angle_alpha   90.00000000
_cell_angle_beta   90.00000000
_cell_angle_gamma   90.00000000
_symmetry_Int_Tables_number   1
_chemical_formula_structural   Li4TeF2
_chemical_formula_sum   'Li96 Te24 F48'
_cell_volume   3128.95551814
_cell_formula_units_Z   24
loop_
 _symmetry_equiv_pos_site_id
 _symmetry_equiv_pos_as_xyz
  1  'x, y, z'
loop_
 _atom_site_type_symbol
 _atom_site_label
 _atom_site_symmetry_multiplicity
 _atom_site_fract_x
 _atom_site_fract_y
 _atom_site_fract_z
 _atom_site_occupancy
  F  F0  1  0.69016711  0.96991988  0.01365540  1
  F  F1  1  -0.19016711  -0.96991988  0.51365540  1
  F  F2  1  -0.69016711  1.46991988  0.48634460  1
  F  F3  1  1.19016711  -0.46991988  -0.01365540  1
  F  F4  1  0.01365540  0.69016711  0.96991988  1
  F  F5  1  0.51365540  -0.19016711  -0.96991988  1
  F  F6  1  0.48634460  -0.69016711  1.46991988  1
  F  F7  1  -0.01365540  1.19016711  -0.46991988  1
  F  F8  1  0.96991988  0.01365540  0.69016711  1
  F  F9  1  -0.96991988  0.51365540  -0.19016711  1
  F  F10  1  1.46991988  0.48634460  -0.69016711  1
  F  F11  1  -0.46991988  -0.01365540  1.19016711  1
  F  F12  1  1.71991988  0.94016711  0.23634460  1
  F  F13  1  -0.21991988  0.05983289  0.73634460  1
  F  F14  1  1.21991988  -0.44016711  0.76365540  1
  F  F15  1  -0.71991988  1.44016711  0.26365540  1
  F  F16  1  1.44016711  0.26365540  -0.71991988  1
  F  F17  1  -0.44016711  0.76365540  1.21991988  1
  F  F18  1  0.05983289  0.73634460  -0.21991988  1
  F  F19  1  0.94016711  0.23634460  1.71991988  1
  F  F20  1  0.76365540  1.21991988  -0.44016711  1
  F  F21  1  0.26365540  -0.71991988  1.44016711  1
  F  F22  1  0.23634460  1.71991988  0.94016711  1
  F  F23  1  0.73634460  -0.21991988  0.05983289  1
  F  F24  1  1.19016711  1.46991988  0.51365540  1
  F  F25  1  0.30983289  -0.46991988  1.01365540  1
  F  F26  1  -0.19016711  1.96991988  0.98634460  1
  F  F27  1  1.69016711  0.03008012  0.48634460  1
  F  F28  1  0.51365540  1.19016711  1.46991988  1
  F  F29  1  1.01365540  0.30983289  -0.46991988  1
  F  F30  1  0.98634460  -0.19016711  1.96991988  1
  F  F31  1  0.48634460  1.69016711  0.03008012  1
  F  F32  1  1.46991988  0.51365540  1.19016711  1
  F  F33  1  -0.46991988  1.01365540  0.30983289  1
  F  F34  1  1.96991988  0.98634460  -0.19016711  1
  F  F35  1  0.03008012  0.48634460  1.69016711  1
  F  F36  1  2.21991988  1.44016711  0.73634460  1
  F  F37  1  0.28008012  0.55983289  1.23634460  1
  F  F38  1  1.71991988  0.05983289  1.26365540  1
  F  F39  1  -0.21991988  1.94016711  0.76365540  1
  F  F40  1  1.94016711  0.76365540  -0.21991988  1
  F  F41  1  0.05983289  1.26365540  1.71991988  1
  F  F42  1  0.55983289  1.23634460  0.28008012  1
  F  F43  1  1.44016711  0.73634460  2.21991988  1
  F  F44  1  1.26365540  1.71991988  0.05983289  1
  F  F45  1  0.76365540  -0.21991988  1.94016711  1
  F  F46  1  0.73634460  2.21991988  1.44016711  1
  F  F47  1  1.23634460  0.28008012  0.55983289  1
  Li  Li48  1  0.62500000  0.00000000  0.25000000  1
  Li  Li49  1  0.87500000  0.00000000  0.75000000  1
  Li  Li50  1  0.25000000  0.62500000  0.00000000  1
  Li  Li51  1  0.75000000  0.87500000  0.00000000  1
  Li  Li52  1  0.00000000  0.25000000  0.62500000  1
  Li  Li53  1  0.00000000  0.75000000  0.87500000  1
  Li  Li54  1  0.12500000  0.50000000  0.75000000  1
  Li  Li55  1  0.37500000  0.50000000  0.25000000  1
  Li  Li56  1  0.75000000  0.12500000  0.50000000  1
  Li  Li57  1  0.25000000  0.37500000  0.50000000  1
  Li  Li58  1  0.50000000  0.75000000  0.12500000  1
  Li  Li59  1  0.50000000  0.25000000  0.37500000  1
  Li  Li60  1  0.12500000  0.22587540  0.02412460  1
  Li  Li61  1  0.37500000  0.77412460  0.52412460  1
  Li  Li62  1  0.87500000  0.72587540  0.47587540  1
  Li  Li63  1  0.62500000  0.27412460  0.97587540  1
  Li  Li64  1  0.02412460  0.12500000  0.22587540  1
  Li  Li65  1  0.52412460  0.37500000  0.77412460  1
  Li  Li66  1  0.47587540  0.87500000  0.72587540  1
  Li  Li67  1  0.97587540  0.62500000  0.27412460  1
  Li  Li68  1  0.22587540  0.02412460  0.12500000  1
  Li  Li69  1  0.77412460  0.52412460  0.37500000  1
  Li  Li70  1  0.72587540  0.47587540  0.87500000  1
  Li  Li71  1  0.27412460  0.97587540  0.62500000  1
  Li  Li72  1  0.62500000  0.72587540  0.52412460  1
  Li  Li73  1  0.87500000  0.27412460  0.02412460  1
  Li  Li74  1  0.37500000  0.22587540  0.97587540  1
  Li  Li75  1  0.12500000  0.77412460  0.47587540  1
  Li  Li76  1  0.52412460  0.62500000  0.72587540  1
  Li  Li77  1  0.02412460  0.87500000  0.27412460  1
  Li  Li78  1  0.97587540  0.37500000  0.22587540  1
  Li  Li79  1  0.47587540  0.12500000  0.77412460  1
  Li  Li80  1  0.72587540  0.52412460  0.62500000  1
  Li  Li81  1  0.27412460  0.02412460  0.87500000  1
  Li  Li82  1  0.22587540  0.97587540  0.37500000  1
  Li  Li83  1  0.77412460  0.47587540  0.12500000  1
  Li  Li84  1  0.04889284  0.04889284  0.04889284  1
  Li  Li85  1  0.45110716  0.95110716  0.54889284  1
  Li  Li86  1  0.95110716  0.54889284  0.45110716  1
  Li  Li87  1  0.54889284  0.45110716  0.95110716  1
  Li  Li88  1  0.79889284  0.29889284  0.20110716  1
  Li  Li89  1  0.70110716  0.70110716  0.70110716  1
  Li  Li90  1  0.29889284  0.20110716  0.79889284  1
  Li  Li91  1  0.20110716  0.79889284  0.29889284  1
  Li  Li92  1  0.54889284  0.54889284  0.54889284  1
  Li  Li93  1  0.95110716  0.45110716  0.04889284  1
  Li  Li94  1  0.45110716  0.04889284  0.95110716  1
  Li  Li95  1  0.04889284  0.95110716  0.45110716  1
  Li  Li96  1  0.29889284  0.79889284  0.70110716  1
  Li  Li97  1  0.20110716  0.20110716  0.20110716  1
  Li  Li98  1  0.79889284  0.70110716  0.29889284  1
  Li  Li99  1  0.70110716  0.29889284  0.79889284  1
  Li  Li100  1  0.12500000  0.12500000  0.12500000  1
  Li  Li101  1  0.37500000  0.87500000  0.62500000  1
  Li  Li102  1  0.87500000  0.62500000  0.37500000  1
  Li  Li103  1  0.62500000  0.37500000  0.87500000  1
  Li  Li104  1  0.62500000  0.62500000  0.62500000  1
  Li  Li105  1  0.87500000  0.37500000  0.12500000  1
  Li  Li106  1  0.37500000  0.12500000  0.87500000  1
  Li  Li107  1  0.12500000  0.87500000  0.37500000  1
  Li  Li108  1  0.12500000  0.72254033  0.97254033  1
  Li  Li109  1  0.37500000  0.27745967  0.47254033  1
  Li  Li110  1  0.87500000  0.22254033  0.52745967  1
  Li  Li111  1  0.62500000  0.77745967  0.02745967  1
  Li  Li112  1  0.97254033  0.12500000  0.72254033  1
  Li  Li113  1  0.47254033  0.37500000  0.27745967  1
  Li  Li114  1  0.52745967  0.87500000  0.22254033  1
  Li  Li115  1  0.02745967  0.62500000  0.77745967  1
  Li  Li116  1  0.72254033  0.97254033  0.12500000  1
  Li  Li117  1  0.27745967  0.47254033  0.37500000  1
  Li  Li118  1  0.22254033  0.52745967  0.87500000  1
  Li  Li119  1  0.77745967  0.02745967  0.62500000  1
  Li  Li120  1  0.62500000  0.22254033  0.47254033  1
  Li  Li121  1  0.87500000  0.77745967  0.97254033  1
  Li  Li122  1  0.37500000  0.72254033  0.02745967  1
  Li  Li123  1  0.12500000  0.27745967  0.52745967  1
  Li  Li124  1  0.47254033  0.62500000  0.22254033  1
  Li  Li125  1  0.97254033  0.87500000  0.77745967  1
  Li  Li126  1  0.02745967  0.37500000  0.72254033  1
  Li  Li127  1  0.52745967  0.12500000  0.27745967  1
  Li  Li128  1  0.22254033  0.47254033  0.62500000  1
  Li  Li129  1  0.77745967  0.97254033  0.87500000  1
  Li  Li130  1  0.72254033  0.02745967  0.37500000  1
  Li  Li131  1  0.27745967  0.52745967  0.12500000  1
  Li  Li132  1  0.12500000  0.00000000  0.25000000  1
  Li  Li133  1  0.37500000  0.00000000  0.75000000  1
  Li  Li134  1  0.25000000  0.12500000  0.00000000  1
  Li  Li135  1  0.75000000  0.37500000  0.00000000  1
  Li  Li136  1  0.00000000  0.25000000  0.12500000  1
  Li  Li137  1  0.00000000  0.75000000  0.37500000  1
  Li  Li138  1  0.62500000  0.50000000  0.75000000  1
  Li  Li139  1  0.87500000  0.50000000  0.25000000  1
  Li  Li140  1  0.75000000  0.62500000  0.50000000  1
  Li  Li141  1  0.25000000  0.87500000  0.50000000  1
  Li  Li142  1  0.50000000  0.75000000  0.62500000  1
  Li  Li143  1  0.50000000  0.25000000  0.87500000  1
  Te  Te144  1  0.01902145  0.00000000  0.25000000  1
  Te  Te145  1  0.48097855  0.00000000  0.75000000  1
  Te  Te146  1  0.25000000  0.01902145  0.00000000  1
  Te  Te147  1  0.75000000  0.48097855  0.00000000  1
  Te  Te148  1  0.00000000  0.25000000  0.01902145  1
  Te  Te149  1  0.00000000  0.75000000  0.48097855  1
  Te  Te150  1  0.75000000  0.26902145  0.00000000  1
  Te  Te151  1  0.75000000  0.73097855  0.50000000  1
  Te  Te152  1  0.76902145  0.50000000  0.25000000  1
  Te  Te153  1  0.23097855  0.00000000  0.25000000  1
  Te  Te154  1  0.00000000  0.25000000  0.23097855  1
  Te  Te155  1  0.50000000  0.25000000  0.76902145  1
  Te  Te156  1  0.51902145  0.50000000  0.75000000  1
  Te  Te157  1  0.98097855  0.50000000  0.25000000  1
  Te  Te158  1  0.75000000  0.51902145  0.50000000  1
  Te  Te159  1  0.25000000  0.98097855  0.50000000  1
  Te  Te160  1  0.50000000  0.75000000  0.51902145  1
  Te  Te161  1  0.50000000  0.25000000  0.98097855  1
  Te  Te162  1  0.25000000  0.76902145  0.50000000  1
  Te  Te163  1  0.25000000  0.23097855  -0.00000000  1
  Te  Te164  1  0.26902145  0.00000000  0.75000000  1
  Te  Te165  1  0.73097855  0.50000000  0.75000000  1
  Te  Te166  1  0.50000000  0.75000000  0.73097855  1
  Te  Te167  1  0.00000000  0.75000000  0.26902145  1
