# generated using pymatgen
data_Li4TeF2
_symmetry_space_group_name_H-M   'P 1'
_cell_length_a   15.24845353
_cell_length_b   15.24845353
_cell_length_c   12.41193931
_cell_angle_alpha   90.00000000
_cell_angle_beta   90.00000000
_cell_angle_gamma   90.00000000
_symmetry_Int_Tables_number   1
_chemical_formula_structural   Li4TeF2
_chemical_formula_sum   'Li96 Te24 F48'
_cell_volume   2885.96622470
_cell_formula_units_Z   24
loop_
 _symmetry_equiv_pos_site_id
 _symmetry_equiv_pos_as_xyz
  1  'x, y, z'
loop_
 _atom_site_type_symbol
 _atom_site_label
 _atom_site_symmetry_multiplicity
 _atom_site_fract_x
 _atom_site_fract_y
 _atom_site_fract_z
 _atom_site_occupancy
  F  F0  1  0.76192771  0.50000000  -0.00000000  1
  F  F1  1  0.23807229  0.50000000  -0.00000000  1
  F  F2  1  0.50000000  0.76192771  -0.00000000  1
  F  F3  1  0.50000000  0.23807229  -0.00000000  1
  F  F4  1  0.23973669  0.41300606  0.75757731  1
  F  F5  1  -0.23973669  -0.41300606  0.75757731  1
  F  F6  1  -0.41300606  0.23973669  0.75757731  1
  F  F7  1  0.41300606  -0.23973669  0.75757731  1
  F  F8  1  -0.23973669  0.41300606  -0.75757731  1
  F  F9  1  0.23973669  -0.41300606  -0.75757731  1
  F  F10  1  0.41300606  0.23973669  -0.75757731  1
  F  F11  1  -0.41300606  -0.23973669  -0.75757731  1
  F  F12  1  -0.23973669  -0.41300606  -0.75757731  1
  F  F13  1  0.23973669  0.41300606  -0.75757731  1
  F  F14  1  0.41300606  -0.23973669  -0.75757731  1
  F  F15  1  -0.41300606  0.23973669  -0.75757731  1
  F  F16  1  0.23973669  -0.41300606  0.75757731  1
  F  F17  1  -0.23973669  0.41300606  0.75757731  1
  F  F18  1  -0.41300606  -0.23973669  0.75757731  1
  F  F19  1  0.41300606  0.23973669  0.75757731  1
  F  F20  1  0.08360433  -0.00000000  0.05645511  1
  F  F21  1  0.91639567  0.00000000  0.05645511  1
  F  F22  1  0.00000000  0.08360433  0.05645511  1
  F  F23  1  0.00000000  0.91639567  0.05645511  1
  F  F24  1  0.91639567  0.00000000  0.94354489  1
  F  F25  1  0.08360433  -0.00000000  0.94354489  1
  F  F26  1  0.00000000  0.08360433  0.94354489  1
  F  F27  1  0.00000000  0.91639567  0.94354489  1
  F  F28  1  0.79348394  0.50000000  0.50000000  1
  F  F29  1  0.20651606  0.50000000  0.50000000  1
  F  F30  1  0.50000000  0.79348394  0.50000000  1
  F  F31  1  0.50000000  0.20651606  0.50000000  1
  F  F32  1  0.87528315  -0.00000000  0.83188287  1
  F  F33  1  0.12471685  0.00000000  0.83188287  1
  F  F34  1  0.00000000  0.87528315  0.83188287  1
  F  F35  1  0.00000000  0.12471685  0.83188287  1
  F  F36  1  0.12471685  0.00000000  0.16811713  1
  F  F37  1  0.87528315  -0.00000000  0.16811713  1
  F  F38  1  0.00000000  0.87528315  0.16811713  1
  F  F39  1  0.00000000  0.12471685  0.16811713  1
  F  F40  1  0.50000000  0.50000000  -0.00000000  1
  F  F41  1  0.65136461  -0.00000000  -0.00000000  1
  F  F42  1  0.34863539  0.00000000  -0.00000000  1
  F  F43  1  0.00000000  0.65136461  -0.00000000  1
  F  F44  1  0.00000000  0.34863539  0.00000000  1
  F  F45  1  0.50000000  0.50000000  0.50000000  1
  F  F46  1  0.00000000  0.00000000  0.00000000  1
  F  F47  1  0.00000000  0.00000000  0.50000000  1
  Li  Li48  1  0.59617196  0.50000000  0.50000000  1
  Li  Li49  1  0.40382804  0.50000000  0.50000000  1
  Li  Li50  1  0.50000000  0.59617196  0.50000000  1
  Li  Li51  1  0.50000000  0.40382804  0.50000000  1
  Li  Li52  1  0.28271794  0.92363630  0.14339897  1
  Li  Li53  1  0.71728206  0.07636370  0.14339897  1
  Li  Li54  1  0.07636370  0.28271794  0.14339897  1
  Li  Li55  1  0.92363630  0.71728206  0.14339897  1
  Li  Li56  1  0.71728206  0.92363630  0.85660103  1
  Li  Li57  1  0.28271794  0.07636370  0.85660103  1
  Li  Li58  1  0.92363630  0.28271794  0.85660103  1
  Li  Li59  1  0.07636370  0.71728206  0.85660103  1
  Li  Li60  1  0.71728206  0.07636370  0.85660103  1
  Li  Li61  1  0.28271794  0.92363630  0.85660103  1
  Li  Li62  1  0.92363630  0.71728206  0.85660103  1
  Li  Li63  1  0.07636370  0.28271794  0.85660103  1
  Li  Li64  1  0.28271794  0.07636370  0.14339897  1
  Li  Li65  1  0.71728206  0.92363630  0.14339897  1
  Li  Li66  1  0.07636370  0.71728206  0.14339897  1
  Li  Li67  1  0.92363630  0.28271794  0.14339897  1
  Li  Li68  1  0.45363622  0.89572692  0.60382475  1
  Li  Li69  1  0.54636378  0.10427308  0.60382475  1
  Li  Li70  1  0.10427308  0.45363622  0.60382475  1
  Li  Li71  1  0.89572692  0.54636378  0.60382475  1
  Li  Li72  1  0.54636378  0.89572692  0.39617525  1
  Li  Li73  1  0.45363622  0.10427308  0.39617525  1
  Li  Li74  1  0.89572692  0.45363622  0.39617525  1
  Li  Li75  1  0.10427308  0.54636378  0.39617525  1
  Li  Li76  1  0.54636378  0.10427308  0.39617525  1
  Li  Li77  1  0.45363622  0.89572692  0.39617525  1
  Li  Li78  1  0.89572692  0.54636378  0.39617525  1
  Li  Li79  1  0.10427308  0.45363622  0.39617525  1
  Li  Li80  1  0.45363622  0.10427308  0.60382475  1
  Li  Li81  1  0.54636378  0.89572692  0.60382475  1
  Li  Li82  1  0.10427308  0.54636378  0.60382475  1
  Li  Li83  1  0.89572692  0.45363622  0.60382475  1
  Li  Li84  1  0.93283073  0.81910586  0.50000000  1
  Li  Li85  1  0.06716927  0.18089414  0.50000000  1
  Li  Li86  1  0.18089414  0.93283073  0.50000000  1
  Li  Li87  1  0.81910586  0.06716927  0.50000000  1
  Li  Li88  1  0.06716927  0.81910586  0.50000000  1
  Li  Li89  1  0.93283073  0.18089414  0.50000000  1
  Li  Li90  1  0.81910586  0.93283073  0.50000000  1
  Li  Li91  1  0.18089414  0.06716927  0.50000000  1
  Li  Li92  1  0.40393146  0.89075739  0.30296117  1
  Li  Li93  1  0.59606854  0.10924261  0.30296117  1
  Li  Li94  1  0.10924261  0.40393146  0.30296117  1
  Li  Li95  1  0.89075739  0.59606854  0.30296117  1
  Li  Li96  1  0.59606854  0.89075739  0.69703883  1
  Li  Li97  1  0.40393146  0.10924261  0.69703883  1
  Li  Li98  1  0.89075739  0.40393146  0.69703883  1
  Li  Li99  1  0.10924261  0.59606854  0.69703883  1
  Li  Li100  1  0.59606854  0.10924261  0.69703883  1
  Li  Li101  1  0.40393146  0.89075739  0.69703883  1
  Li  Li102  1  0.89075739  0.59606854  0.69703883  1
  Li  Li103  1  0.10924261  0.40393146  0.69703883  1
  Li  Li104  1  0.40393146  0.10924261  0.30296117  1
  Li  Li105  1  0.59606854  0.89075739  0.30296117  1
  Li  Li106  1  0.10924261  0.59606854  0.30296117  1
  Li  Li107  1  0.89075739  0.40393146  0.30296117  1
  Li  Li108  1  0.87186226  0.68282400  0.74080595  1
  Li  Li109  1  0.12813774  0.31717600  0.74080595  1
  Li  Li110  1  0.31717600  0.87186226  0.74080595  1
  Li  Li111  1  0.68282400  0.12813774  0.74080595  1
  Li  Li112  1  0.12813774  0.68282400  0.25919405  1
  Li  Li113  1  0.87186226  0.31717600  0.25919405  1
  Li  Li114  1  0.68282400  0.87186226  0.25919405  1
  Li  Li115  1  0.31717600  0.12813774  0.25919405  1
  Li  Li116  1  0.12813774  0.31717600  0.25919405  1
  Li  Li117  1  0.87186226  0.68282400  0.25919405  1
  Li  Li118  1  0.68282400  0.12813774  0.25919405  1
  Li  Li119  1  0.31717600  0.87186226  0.25919405  1
  Li  Li120  1  0.87186226  0.31717600  0.74080595  1
  Li  Li121  1  0.12813774  0.68282400  0.74080595  1
  Li  Li122  1  0.31717600  0.12813774  0.74080595  1
  Li  Li123  1  0.68282400  0.87186226  0.74080595  1
  Li  Li124  1  0.00000000  0.50000000  0.63956093  1
  Li  Li125  1  0.50000000  0.00000000  0.63956093  1
  Li  Li126  1  0.00000000  0.50000000  0.36043907  1
  Li  Li127  1  0.50000000  0.00000000  0.36043907  1
  Li  Li128  1  0.29709314  0.29709314  -0.00000000  1
  Li  Li129  1  0.70290686  0.70290686  0.00000000  1
  Li  Li130  1  0.70290686  0.29709314  -0.00000000  1
  Li  Li131  1  0.29709314  0.70290686  0.00000000  1
  Li  Li132  1  0.00000000  0.00000000  0.63721573  1
  Li  Li133  1  0.00000000  0.00000000  0.36278427  1
  Li  Li134  1  0.50000000  0.50000000  0.30161760  1
  Li  Li135  1  0.50000000  0.50000000  0.69838240  1
  Li  Li136  1  0.58133032  -0.00000000  0.05574374  1
  Li  Li137  1  0.41866968  -0.00000000  0.05574374  1
  Li  Li138  1  0.00000000  0.58133032  0.05574374  1
  Li  Li139  1  0.00000000  0.41866968  0.05574374  1
  Li  Li140  1  0.41866968  -0.00000000  0.94425626  1
  Li  Li141  1  0.58133032  -0.00000000  0.94425626  1
  Li  Li142  1  0.00000000  0.58133032  0.94425626  1
  Li  Li143  1  0.00000000  0.41866968  0.94425626  1
  Te  Te144  1  0.19516458  0.39175434  0.42283738  1
  Te  Te145  1  0.80483542  0.60824566  0.42283738  1
  Te  Te146  1  0.60824566  0.19516458  0.42283738  1
  Te  Te147  1  0.39175434  0.80483542  0.42283738  1
  Te  Te148  1  0.80483542  0.39175434  0.57716262  1
  Te  Te149  1  0.19516458  0.60824566  0.57716262  1
  Te  Te150  1  0.39175434  0.19516458  0.57716262  1
  Te  Te151  1  0.60824566  0.80483542  0.57716262  1
  Te  Te152  1  0.80483542  0.60824566  0.57716262  1
  Te  Te153  1  0.19516458  0.39175434  0.57716262  1
  Te  Te154  1  0.39175434  0.80483542  0.57716262  1
  Te  Te155  1  0.60824566  0.19516458  0.57716262  1
  Te  Te156  1  0.19516458  0.60824566  0.42283738  1
  Te  Te157  1  0.80483542  0.39175434  0.42283738  1
  Te  Te158  1  0.60824566  0.80483542  0.42283738  1
  Te  Te159  1  0.39175434  0.19516458  0.42283738  1
  Te  Te160  1  0.16102803  0.50000000  -0.00000000  1
  Te  Te161  1  0.83897197  0.50000000  0.00000000  1
  Te  Te162  1  0.50000000  0.16102803  -0.00000000  1
  Te  Te163  1  0.50000000  0.83897197  0.00000000  1
  Te  Te164  1  0.40465669  0.40465669  0.00000000  1
  Te  Te165  1  0.59534331  0.59534331  -0.00000000  1
  Te  Te166  1  0.59534331  0.40465669  -0.00000000  1
  Te  Te167  1  0.40465669  0.59534331  0.00000000  1
