# generated using pymatgen
data_Li2Y2As3P2Se
_symmetry_space_group_name_H-M   'P 1'
_cell_length_a   5.23243426
_cell_length_b   5.22296952
_cell_length_c   7.11002077
_cell_angle_alpha   94.27938719
_cell_angle_beta   98.87276142
_cell_angle_gamma   106.48781186
_symmetry_Int_Tables_number   1
_chemical_formula_structural   Li2Y2As3P2Se
_chemical_formula_sum   'Li2 Y2 As3 P2 Se1'
_cell_volume   182.64597416
_cell_formula_units_Z   1
loop_
 _symmetry_equiv_pos_site_id
 _symmetry_equiv_pos_as_xyz
  1  'x, y, z'
loop_
 _atom_site_type_symbol
 _atom_site_label
 _atom_site_symmetry_multiplicity
 _atom_site_fract_x
 _atom_site_fract_y
 _atom_site_fract_z
 _atom_site_occupancy
  Se  Se0  1  0.12500000  0.00000000  0.25000000  1
  Y  Y1  1  0.00000000  0.00000000  0.00000000  1
  Y  Y2  1  0.37500000  0.00000000  0.25000000  1
  P  P3  1  0.25000000  0.25000000  0.25000000  1
  P  P4  1  0.00000000  0.25000000  0.12500000  1
  As  As5  1  0.87772098  0.14135025  0.92606145  1
  As  As6  1  0.24053720  0.50023461  0.13801830  1
  As  As7  1  0.13637030  0.37980274  0.94390984  1
  Li  Li8  1  0.81007205  0.39036268  0.55075368  1
  Li  Li9  1  0.12665682  0.75697553  0.02489508  1
