# generated using pymatgen
data_LiCu3Sb2PSe
_symmetry_space_group_name_H-M   'P 1'
_cell_length_a   5.18278540
_cell_length_b   5.37205901
_cell_length_c   6.44766730
_cell_angle_alpha   93.46861617
_cell_angle_beta   95.55197514
_cell_angle_gamma   100.71786560
_symmetry_Int_Tables_number   1
_chemical_formula_structural   LiCu3Sb2PSe
_chemical_formula_sum   'Li1 Cu3 Sb2 P1 Se1'
_cell_volume   174.99184589
_cell_formula_units_Z   1
loop_
 _symmetry_equiv_pos_site_id
 _symmetry_equiv_pos_as_xyz
  1  'x, y, z'
loop_
 _atom_site_type_symbol
 _atom_site_label
 _atom_site_symmetry_multiplicity
 _atom_site_fract_x
 _atom_site_fract_y
 _atom_site_fract_z
 _atom_site_occupancy
  Se  Se0  1  0.12500000  0.00000000  0.25000000  1
  Cu  Cu1  1  0.00000000  0.00000000  0.00000000  1
  Cu  Cu2  1  0.37500000  0.00000000  0.25000000  1
  Cu  Cu3  1  0.25000000  0.25000000  0.25000000  1
  P  P4  1  0.00000000  0.25000000  0.12500000  1
  Li  Li5  1  0.71007673  0.98957296  0.53519966  1
  Sb  Sb6  1  0.21883690  0.94648470  0.61192317  1
  Sb  Sb7  1  0.02544942  0.62742951  0.54672509  1
