# generated using pymatgen
data_LiCaF3
_symmetry_space_group_name_H-M   'P 1'
_cell_length_a   9.65017683
_cell_length_b   9.65017683
_cell_length_c   12.96417651
_cell_angle_alpha   90.00000000
_cell_angle_beta   90.00000000
_cell_angle_gamma   120.00000000
_symmetry_Int_Tables_number   1
_chemical_formula_structural   LiCaF3
_chemical_formula_sum   'Li18 Ca18 F54'
_cell_volume   1045.55313759
_cell_formula_units_Z   18
loop_
 _symmetry_equiv_pos_site_id
 _symmetry_equiv_pos_as_xyz
  1  'x, y, z'
loop_
 _atom_site_type_symbol
 _atom_site_label
 _atom_site_symmetry_multiplicity
 _atom_site_fract_x
 _atom_site_fract_y
 _atom_site_fract_z
 _atom_site_occupancy
  Ca  Ca0  1  0.00000000  0.00000000  0.67879794  1
  Ca  Ca1  1  0.00000000  0.00000000  0.82120206  1
  Ca  Ca2  1  0.00000000  0.00000000  0.32120206  1
  Ca  Ca3  1  0.00000000  0.00000000  0.17879794  1
  Ca  Ca4  1  0.66666667  0.33333333  0.01213128  1
  Ca  Ca5  1  0.66666667  0.33333333  0.15453539  1
  Ca  Ca6  1  0.66666667  0.33333333  0.65453539  1
  Ca  Ca7  1  0.66666667  0.33333333  0.51213128  1
  Ca  Ca8  1  0.33333333  0.66666667  0.34546461  1
  Ca  Ca9  1  0.33333333  0.66666667  0.48786872  1
  Ca  Ca10  1  0.33333333  0.66666667  0.98786872  1
  Ca  Ca11  1  0.33333333  0.66666667  0.84546461  1
  Ca  Ca12  1  0.00000000  0.00000000  0.00000000  1
  Ca  Ca13  1  0.00000000  0.00000000  0.50000000  1
  Ca  Ca14  1  0.66666667  0.33333333  0.33333333  1
  Ca  Ca15  1  0.66666667  0.33333333  0.83333333  1
  Ca  Ca16  1  0.33333333  0.66666667  0.66666667  1
  Ca  Ca17  1  0.33333333  0.66666667  0.16666667  1
  F  F18  1  0.84507417  0.05209850  0.83191105  1
  F  F19  1  -0.05209850  0.79297567  0.83191105  1
  F  F20  1  -0.79297567  -0.84507417  0.83191105  1
  F  F21  1  0.05209850  0.84507417  -0.33191105  1
  F  F22  1  0.79297567  -0.05209850  -0.33191105  1
  F  F23  1  -0.84507417  -0.79297567  -0.33191105  1
  F  F24  1  -0.84507417  -0.05209850  -0.83191105  1
  F  F25  1  0.05209850  -0.79297567  -0.83191105  1
  F  F26  1  0.79297567  0.84507417  -0.83191105  1
  F  F27  1  -0.05209850  -0.84507417  1.33191105  1
  F  F28  1  -0.79297567  0.05209850  1.33191105  1
  F  F29  1  0.84507417  0.79297567  1.33191105  1
  F  F30  1  1.51174084  0.38543184  1.16524438  1
  F  F31  1  0.61456816  1.12630900  1.16524438  1
  F  F32  1  -0.12630900  -0.51174084  1.16524438  1
  F  F33  1  0.71876517  1.17840750  0.00142229  1
  F  F34  1  1.45964234  0.28123483  0.00142229  1
  F  F35  1  -0.17840750  -0.45964234  0.00142229  1
  F  F36  1  -0.17840750  0.28123483  -0.49857771  1
  F  F37  1  0.71876517  -0.45964234  -0.49857771  1
  F  F38  1  1.45964234  1.17840750  -0.49857771  1
  F  F39  1  0.61456816  -0.51174084  1.66524438  1
  F  F40  1  -0.12630900  0.38543184  1.66524438  1
  F  F41  1  1.51174084  1.12630900  1.66524438  1
  F  F42  1  1.17840750  0.71876517  1.49857771  1
  F  F43  1  0.28123483  1.45964234  1.49857771  1
  F  F44  1  -0.45964234  -0.17840750  1.49857771  1
  F  F45  1  0.38543184  1.51174084  0.33475562  1
  F  F46  1  1.12630900  0.61456816  0.33475562  1
  F  F47  1  -0.51174084  -0.12630900  0.33475562  1
  F  F48  1  -0.51174084  0.61456816  -0.16524438  1
  F  F49  1  0.38543184  -0.12630900  -0.16524438  1
  F  F50  1  1.12630900  1.51174084  -0.16524438  1
  F  F51  1  0.28123483  -0.17840750  1.99857771  1
  F  F52  1  -0.45964234  0.71876517  1.99857771  1
  F  F53  1  1.17840750  1.45964234  1.99857771  1
  F  F54  1  0.56755260  0.00000000  0.25000000  1
  F  F55  1  0.00000000  0.56755260  0.25000000  1
  F  F56  1  0.43244740  0.43244740  0.25000000  1
  F  F57  1  0.43244740  -0.00000000  0.75000000  1
  F  F58  1  0.00000000  0.43244740  0.75000000  1
  F  F59  1  0.56755260  0.56755260  0.75000000  1
  F  F60  1  0.23421927  0.33333333  0.58333333  1
  F  F61  1  0.66666667  0.90088594  0.58333333  1
  F  F62  1  0.09911406  0.76578073  0.58333333  1
  F  F63  1  0.09911406  0.33333333  0.08333333  1
  F  F64  1  0.66666667  0.76578073  0.08333333  1
  F  F65  1  0.23421927  0.90088594  0.08333333  1
  F  F66  1  0.90088594  0.66666667  0.91666667  1
  F  F67  1  0.33333333  0.23421927  0.91666667  1
  F  F68  1  0.76578073  0.09911406  0.91666667  1
  F  F69  1  0.76578073  0.66666667  0.41666667  1
  F  F70  1  0.33333333  0.09911406  0.41666667  1
  F  F71  1  0.90088594  0.23421927  0.41666667  1
  Li  Li72  1  0.50000000  0.00000000  -0.00000000  1
  Li  Li73  1  0.00000000  0.50000000  0.00000000  1
  Li  Li74  1  0.50000000  0.50000000  0.00000000  1
  Li  Li75  1  0.00000000  0.50000000  0.50000000  1
  Li  Li76  1  0.50000000  0.00000000  0.50000000  1
  Li  Li77  1  0.50000000  0.50000000  0.50000000  1
  Li  Li78  1  0.16666667  0.33333333  0.33333333  1
  Li  Li79  1  0.66666667  0.83333333  0.33333333  1
  Li  Li80  1  0.16666667  0.83333333  0.33333333  1
  Li  Li81  1  0.66666667  0.83333333  0.83333333  1
  Li  Li82  1  0.16666667  0.33333333  0.83333333  1
  Li  Li83  1  0.16666667  0.83333333  0.83333333  1
  Li  Li84  1  0.83333333  0.66666667  0.66666667  1
  Li  Li85  1  0.33333333  0.16666667  0.66666667  1
  Li  Li86  1  0.83333333  0.16666667  0.66666667  1
  Li  Li87  1  0.33333333  0.16666667  0.16666667  1
  Li  Li88  1  0.83333333  0.66666667  0.16666667  1
  Li  Li89  1  0.83333333  0.16666667  0.16666667  1
