# generated using pymatgen
data_LiF
_symmetry_space_group_name_H-M   'P 1'
_cell_length_a   11.22971034
_cell_length_b   11.22971034
_cell_length_c   5.35014971
_cell_angle_alpha   90.00000000
_cell_angle_beta   90.00000000
_cell_angle_gamma   90.00000000
_symmetry_Int_Tables_number   1
_chemical_formula_structural   LiF
_chemical_formula_sum   'Li36 F36'
_cell_volume   674.68808857
_cell_formula_units_Z   36
loop_
 _symmetry_equiv_pos_site_id
 _symmetry_equiv_pos_as_xyz
  1  'x, y, z'
loop_
 _atom_site_type_symbol
 _atom_site_label
 _atom_site_symmetry_multiplicity
 _atom_site_fract_x
 _atom_site_fract_y
 _atom_site_fract_z
 _atom_site_occupancy
  F  F0  1  0.32892225  0.59304798  0.37729738  1
  F  F1  1  -0.32892225  -0.59304798  0.37729738  1
  F  F2  1  -0.59304798  0.32892225  0.37729738  1
  F  F3  1  0.59304798  -0.32892225  0.37729738  1
  F  F4  1  -0.32892225  0.59304798  -0.37729738  1
  F  F5  1  0.32892225  -0.59304798  -0.37729738  1
  F  F6  1  0.59304798  0.32892225  -0.37729738  1
  F  F7  1  -0.59304798  -0.32892225  -0.37729738  1
  F  F8  1  -0.32892225  -0.59304798  -0.37729738  1
  F  F9  1  0.32892225  0.59304798  -0.37729738  1
  F  F10  1  0.59304798  -0.32892225  -0.37729738  1
  F  F11  1  -0.59304798  0.32892225  -0.37729738  1
  F  F12  1  0.32892225  -0.59304798  0.37729738  1
  F  F13  1  -0.32892225  0.59304798  0.37729738  1
  F  F14  1  -0.59304798  -0.32892225  0.37729738  1
  F  F15  1  0.59304798  0.32892225  0.37729738  1
  F  F16  1  0.00000000  0.00000000  0.50000000  1
  F  F17  1  0.69801274  0.54604641  0.56403085  1
  F  F18  1  0.30198726  0.45395359  0.56403085  1
  F  F19  1  0.45395359  0.69801274  0.56403085  1
  F  F20  1  0.54604641  0.30198726  0.56403085  1
  F  F21  1  0.30198726  0.54604641  0.43596915  1
  F  F22  1  0.69801274  0.45395359  0.43596915  1
  F  F23  1  0.54604641  0.69801274  0.43596915  1
  F  F24  1  0.45395359  0.30198726  0.43596915  1
  F  F25  1  0.30198726  0.45395359  0.43596915  1
  F  F26  1  0.69801274  0.54604641  0.43596915  1
  F  F27  1  0.54604641  0.30198726  0.43596915  1
  F  F28  1  0.45395359  0.69801274  0.43596915  1
  F  F29  1  0.69801274  0.45395359  0.56403085  1
  F  F30  1  0.30198726  0.54604641  0.56403085  1
  F  F31  1  0.45395359  0.30198726  0.56403085  1
  F  F32  1  0.54604641  0.69801274  0.56403085  1
  F  F33  1  0.00000000  0.50000000  0.00000000  1
  F  F34  1  0.50000000  -0.00000000  0.00000000  1
  F  F35  1  0.50000000  0.50000000  0.50000000  1
  Li  Li36  1  0.38017345  -0.00000000  0.50000000  1
  Li  Li37  1  0.61982655  -0.00000000  0.50000000  1
  Li  Li38  1  0.00000000  0.38017345  0.50000000  1
  Li  Li39  1  0.00000000  0.61982655  0.50000000  1
  Li  Li40  1  0.90732199  -0.00000000  0.14955214  1
  Li  Li41  1  0.09267801  0.00000000  0.14955214  1
  Li  Li42  1  0.00000000  0.90732199  0.14955214  1
  Li  Li43  1  0.00000000  0.09267801  0.14955214  1
  Li  Li44  1  0.09267801  0.00000000  0.85044786  1
  Li  Li45  1  0.90732199  -0.00000000  0.85044786  1
  Li  Li46  1  0.00000000  0.90732199  0.85044786  1
  Li  Li47  1  0.00000000  0.09267801  0.85044786  1
  Li  Li48  1  0.71890343  0.71890343  0.62774192  1
  Li  Li49  1  0.28109657  0.28109657  0.62774192  1
  Li  Li50  1  0.28109657  0.71890343  0.62774192  1
  Li  Li51  1  0.71890343  0.28109657  0.62774192  1
  Li  Li52  1  0.28109657  0.71890343  0.37225808  1
  Li  Li53  1  0.71890343  0.28109657  0.37225808  1
  Li  Li54  1  0.71890343  0.71890343  0.37225808  1
  Li  Li55  1  0.28109657  0.28109657  0.37225808  1
  Li  Li56  1  0.50000000  0.50000000  0.00000000  1
  Li  Li57  1  0.42066485  0.42066485  0.81959414  1
  Li  Li58  1  0.57933515  0.57933515  0.81959414  1
  Li  Li59  1  0.57933515  0.42066485  0.81959414  1
  Li  Li60  1  0.42066485  0.57933515  0.81959414  1
  Li  Li61  1  0.57933515  0.42066485  0.18040586  1
  Li  Li62  1  0.42066485  0.57933515  0.18040586  1
  Li  Li63  1  0.42066485  0.42066485  0.18040586  1
  Li  Li64  1  0.57933515  0.57933515  0.18040586  1
  Li  Li65  1  0.78803891  0.78803891  0.50000000  1
  Li  Li66  1  0.21196109  0.21196109  0.50000000  1
  Li  Li67  1  0.21196109  0.78803891  0.50000000  1
  Li  Li68  1  0.78803891  0.21196109  0.50000000  1
  Li  Li69  1  0.00000000  0.00000000  0.00000000  1
  Li  Li70  1  0.00000000  0.50000000  0.50000000  1
  Li  Li71  1  0.50000000  -0.00000000  0.50000000  1
