# generated using pymatgen
data_LiF
_symmetry_space_group_name_H-M   'P 1'
_cell_length_a   9.01023315
_cell_length_b   9.01023315
_cell_length_c   12.41434939
_cell_angle_alpha   90.00000000
_cell_angle_beta   90.00000000
_cell_angle_gamma   120.00000000
_symmetry_Int_Tables_number   1
_chemical_formula_structural   LiF
_chemical_formula_sum   'Li25 F25'
_cell_volume   872.82394871
_cell_formula_units_Z   25
loop_
 _symmetry_equiv_pos_site_id
 _symmetry_equiv_pos_as_xyz
  1  'x, y, z'
loop_
 _atom_site_type_symbol
 _atom_site_label
 _atom_site_symmetry_multiplicity
 _atom_site_fract_x
 _atom_site_fract_y
 _atom_site_fract_z
 _atom_site_occupancy
  F  F0  1  0.09338013  0.19799937  0.79118518  1
  F  F1  1  -0.19799937  -0.10461924  0.79118518  1
  F  F2  1  0.10461924  -0.09338013  0.79118518  1
  F  F3  1  0.09338013  0.19799937  -0.79118518  1
  F  F4  1  -0.19799937  -0.10461924  -0.79118518  1
  F  F5  1  0.10461924  -0.09338013  -0.79118518  1
  F  F6  1  0.19799937  0.09338013  -0.79118518  1
  F  F7  1  -0.10461924  -0.19799937  -0.79118518  1
  F  F8  1  -0.09338013  0.10461924  -0.79118518  1
  F  F9  1  0.19799937  0.09338013  0.79118518  1
  F  F10  1  -0.10461924  -0.19799937  0.79118518  1
  F  F11  1  -0.09338013  0.10461924  0.79118518  1
  F  F12  1  0.63700145  0.00000000  0.42197773  1
  F  F13  1  0.00000000  0.63700145  0.42197773  1
  F  F14  1  0.36299855  0.36299855  0.42197773  1
  F  F15  1  0.63700145  0.00000000  0.57802227  1
  F  F16  1  0.00000000  0.63700145  0.57802227  1
  F  F17  1  0.36299855  0.36299855  0.57802227  1
  F  F18  1  0.00000000  0.00000000  0.50000000  1
  F  F19  1  0.31511478  0.59161251  -0.00000000  1
  F  F20  1  0.40838749  0.72350228  -0.00000000  1
  F  F21  1  0.27649772  0.68488522  -0.00000000  1
  F  F22  1  0.59161251  0.31511478  -0.00000000  1
  F  F23  1  0.72350228  0.40838749  0.00000000  1
  F  F24  1  0.68488522  0.27649772  -0.00000000  1
  Li  Li25  1  0.34161349  0.85362042  0.50000000  1
  Li  Li26  1  0.14637958  0.48799308  0.50000000  1
  Li  Li27  1  0.51200692  0.65838651  0.50000000  1
  Li  Li28  1  0.85362042  0.34161349  0.50000000  1
  Li  Li29  1  0.48799308  0.14637958  0.50000000  1
  Li  Li30  1  0.65838651  0.51200692  0.50000000  1
  Li  Li31  1  0.13407627  0.00000000  0.50000000  1
  Li  Li32  1  0.00000000  0.13407627  0.50000000  1
  Li  Li33  1  0.86592373  0.86592373  0.50000000  1
  Li  Li34  1  0.49820448  0.00000000  0.23247898  1
  Li  Li35  1  0.00000000  0.49820448  0.23247898  1
  Li  Li36  1  0.50179552  0.50179552  0.23247898  1
  Li  Li37  1  0.49820448  0.00000000  0.76752102  1
  Li  Li38  1  0.00000000  0.49820448  0.76752102  1
  Li  Li39  1  0.50179552  0.50179552  0.76752102  1
  Li  Li40  1  0.66694824  -0.00000000  0.50000000  1
  Li  Li41  1  0.00000000  0.66694824  0.50000000  1
  Li  Li42  1  0.33305176  0.33305176  0.50000000  1
  Li  Li43  1  0.22773821  0.00000000  0.76058940  1
  Li  Li44  1  0.00000000  0.22773821  0.76058940  1
  Li  Li45  1  0.77226179  0.77226179  0.76058940  1
  Li  Li46  1  0.22773821  0.00000000  0.23941060  1
  Li  Li47  1  0.00000000  0.22773821  0.23941060  1
  Li  Li48  1  0.77226179  0.77226179  0.23941060  1
  Li  Li49  1  0.00000000  0.00000000  0.00000000  1
