# generated using pymatgen
data_Li2Y2MoP3Se2
_symmetry_space_group_name_H-M   'P 1'
_cell_length_a   5.15981517
_cell_length_b   5.38717130
_cell_length_c   7.13616360
_cell_angle_alpha   94.45467922
_cell_angle_beta   99.70136522
_cell_angle_gamma   107.89267594
_symmetry_Int_Tables_number   1
_chemical_formula_structural   Li2Y2MoP3Se2
_chemical_formula_sum   'Li2 Y2 Mo1 P3 Se2'
_cell_volume   184.28885288
_cell_formula_units_Z   1
loop_
 _symmetry_equiv_pos_site_id
 _symmetry_equiv_pos_as_xyz
  1  'x, y, z'
loop_
 _atom_site_type_symbol
 _atom_site_label
 _atom_site_symmetry_multiplicity
 _atom_site_fract_x
 _atom_site_fract_y
 _atom_site_fract_z
 _atom_site_occupancy
  Se  Se0  1  0.12500000  0.00000000  0.25000000  1
  Se  Se1  1  0.00000000  0.00000000  0.00000000  1
  P  P2  1  0.37500000  0.00000000  0.25000000  1
  P  P3  1  0.25000000  0.25000000  0.25000000  1
  P  P4  1  0.00000000  0.25000000  0.12500000  1
  Mo  Mo5  1  0.62769603  0.74565654  0.49381636  1
  Li  Li6  1  0.22145553  0.29642857  0.18525046  1
  Li  Li7  1  0.21542677  0.56734331  0.29544409  1
  Y  Y8  1  0.87626119  0.09448444  0.50469242  1
  Y  Y9  1  0.27827802  0.51633007  0.00964712  1
