# generated using pymatgen
data_LiF
_symmetry_space_group_name_H-M   'P 1'
_cell_length_a   6.54361290
_cell_length_b   6.54361290
_cell_length_c   24.00735740
_cell_angle_alpha   90.00000000
_cell_angle_beta   90.00000000
_cell_angle_gamma   120.00000000
_symmetry_Int_Tables_number   1
_chemical_formula_structural   LiF
_chemical_formula_sum   'Li56 F56'
_cell_volume   890.24632432
_cell_formula_units_Z   56
loop_
 _symmetry_equiv_pos_site_id
 _symmetry_equiv_pos_as_xyz
  1  'x, y, z'
loop_
 _atom_site_type_symbol
 _atom_site_label
 _atom_site_symmetry_multiplicity
 _atom_site_fract_x
 _atom_site_fract_y
 _atom_site_fract_z
 _atom_site_occupancy
  F  F0  1  0.72818092  0.05252592  0.59143236  1
  F  F1  1  0.94747408  0.67565500  0.59143236  1
  F  F2  1  0.32434500  0.27181908  0.59143236  1
  F  F3  1  0.27181908  0.94747408  0.09143236  1
  F  F4  1  0.05252592  0.32434500  0.09143236  1
  F  F5  1  0.67565500  0.72818092  0.09143236  1
  F  F6  1  0.27181908  0.94747408  0.40856764  1
  F  F7  1  0.05252592  0.32434500  0.40856764  1
  F  F8  1  0.67565500  0.72818092  0.40856764  1
  F  F9  1  0.72818092  0.05252592  0.90856764  1
  F  F10  1  0.94747408  0.67565500  0.90856764  1
  F  F11  1  0.32434500  0.27181908  0.90856764  1
  F  F12  1  0.80469698  0.01156979  0.13986103  1
  F  F13  1  0.98843021  0.79312719  0.13986103  1
  F  F14  1  0.20687281  0.19530302  0.13986103  1
  F  F15  1  0.19530302  0.98843021  0.63986103  1
  F  F16  1  0.01156979  0.20687281  0.63986103  1
  F  F17  1  0.79312719  0.80469698  0.63986103  1
  F  F18  1  0.19530302  0.98843021  0.86013897  1
  F  F19  1  0.01156979  0.20687281  0.86013897  1
  F  F20  1  0.79312719  0.80469698  0.86013897  1
  F  F21  1  0.80469698  0.01156979  0.36013897  1
  F  F22  1  0.98843021  0.79312719  0.36013897  1
  F  F23  1  0.20687281  0.19530302  0.36013897  1
  F  F24  1  0.66445201  0.52963196  0.49600580  1
  F  F25  1  0.47036804  0.13482005  0.49600580  1
  F  F26  1  0.86517995  0.33554799  0.49600580  1
  F  F27  1  0.33554799  0.47036804  0.99600580  1
  F  F28  1  0.52963196  0.86517995  0.99600580  1
  F  F29  1  0.13482005  0.66445201  0.99600580  1
  F  F30  1  0.33554799  0.47036804  0.50399420  1
  F  F31  1  0.52963196  0.86517995  0.50399420  1
  F  F32  1  0.13482005  0.66445201  0.50399420  1
  F  F33  1  0.66445201  0.52963196  0.00399420  1
  F  F34  1  0.47036804  0.13482005  0.00399420  1
  F  F35  1  0.86517995  0.33554799  0.00399420  1
  F  F36  1  0.00000000  0.00000000  0.00000000  1
  F  F37  1  0.00000000  0.00000000  0.50000000  1
  F  F38  1  0.00000000  0.00000000  0.25000000  1
  F  F39  1  0.00000000  0.00000000  0.75000000  1
  F  F40  1  0.17523560  0.57777356  0.88892260  1
  F  F41  1  0.42222644  0.59746204  0.88892260  1
  F  F42  1  0.40253796  0.82476440  0.88892260  1
  F  F43  1  0.82476440  0.42222644  0.38892260  1
  F  F44  1  0.57777356  0.40253796  0.38892260  1
  F  F45  1  0.59746204  0.17523560  0.38892260  1
  F  F46  1  0.82476440  0.42222644  0.11107740  1
  F  F47  1  0.57777356  0.40253796  0.11107740  1
  F  F48  1  0.59746204  0.17523560  0.11107740  1
  F  F49  1  0.17523560  0.57777356  0.61107740  1
  F  F50  1  0.42222644  0.59746204  0.61107740  1
  F  F51  1  0.40253796  0.82476440  0.61107740  1
  F  F52  1  0.00000000  0.00000000  0.29609488  1
  F  F53  1  0.00000000  0.00000000  0.79609488  1
  F  F54  1  0.00000000  0.00000000  0.70390512  1
  F  F55  1  0.00000000  0.00000000  0.20390512  1
  Li  Li56  1  0.75699290  0.05822587  0.20579157  1
  Li  Li57  1  -0.05822587  0.69876703  0.20579157  1
  Li  Li58  1  -0.69876703  -0.75699290  0.20579157  1
  Li  Li59  1  -0.75699290  -0.05822587  0.70579157  1
  Li  Li60  1  0.05822587  -0.69876703  0.70579157  1
  Li  Li61  1  0.69876703  0.75699290  0.70579157  1
  Li  Li62  1  -0.75699290  -0.05822587  -0.20579157  1
  Li  Li63  1  0.05822587  -0.69876703  -0.20579157  1
  Li  Li64  1  0.69876703  0.75699290  -0.20579157  1
  Li  Li65  1  0.75699290  0.05822587  0.29420843  1
  Li  Li66  1  -0.05822587  0.69876703  0.29420843  1
  Li  Li67  1  -0.69876703  -0.75699290  0.29420843  1
  Li  Li68  1  0.00000000  0.00000000  0.15170922  1
  Li  Li69  1  0.00000000  0.00000000  0.65170922  1
  Li  Li70  1  0.00000000  0.00000000  0.84829078  1
  Li  Li71  1  0.00000000  0.00000000  0.34829078  1
  Li  Li72  1  0.33333333  0.66666667  0.03410250  1
  Li  Li73  1  0.66666667  0.33333333  0.53410250  1
  Li  Li74  1  0.66666667  0.33333333  0.96589750  1
  Li  Li75  1  0.33333333  0.66666667  0.46589750  1
  Li  Li76  1  0.04526689  0.42431096  0.25000000  1
  Li  Li77  1  0.57568904  0.62095592  0.25000000  1
  Li  Li78  1  0.37904408  0.95473311  0.25000000  1
  Li  Li79  1  0.95473311  0.57568904  0.75000000  1
  Li  Li80  1  0.42431096  0.37904408  0.75000000  1
  Li  Li81  1  0.62095592  0.04526689  0.75000000  1
  Li  Li82  1  0.21971645  0.29601757  0.01544035  1
  Li  Li83  1  0.70398243  0.92369888  0.01544035  1
  Li  Li84  1  0.07630112  0.78028355  0.01544035  1
  Li  Li85  1  0.78028355  0.70398243  0.51544035  1
  Li  Li86  1  0.29601757  0.07630112  0.51544035  1
  Li  Li87  1  0.92369888  0.21971645  0.51544035  1
  Li  Li88  1  0.78028355  0.70398243  0.98455965  1
  Li  Li89  1  0.29601757  0.07630112  0.98455965  1
  Li  Li90  1  0.92369888  0.21971645  0.98455965  1
  Li  Li91  1  0.21971645  0.29601757  0.48455965  1
  Li  Li92  1  0.70398243  0.92369888  0.48455965  1
  Li  Li93  1  0.07630112  0.78028355  0.48455965  1
  Li  Li94  1  0.77961948  0.75485920  0.32637117  1
  Li  Li95  1  0.24514080  0.02476028  0.32637117  1
  Li  Li96  1  0.97523972  0.22038052  0.32637117  1
  Li  Li97  1  0.22038052  0.24514080  0.82637117  1
  Li  Li98  1  0.75485920  0.97523972  0.82637117  1
  Li  Li99  1  0.02476028  0.77961948  0.82637117  1
  Li  Li100  1  0.22038052  0.24514080  0.67362883  1
  Li  Li101  1  0.75485920  0.97523972  0.67362883  1
  Li  Li102  1  0.02476028  0.77961948  0.67362883  1
  Li  Li103  1  0.77961948  0.75485920  0.17362883  1
  Li  Li104  1  0.24514080  0.02476028  0.17362883  1
  Li  Li105  1  0.97523972  0.22038052  0.17362883  1
  Li  Li106  1  0.50000000  0.00000000  0.00000000  1
  Li  Li107  1  0.00000000  0.50000000  0.00000000  1
  Li  Li108  1  0.50000000  0.50000000  0.00000000  1
  Li  Li109  1  0.50000000  0.00000000  0.50000000  1
  Li  Li110  1  0.00000000  0.50000000  0.50000000  1
  Li  Li111  1  0.50000000  0.50000000  0.50000000  1
