# generated using pymatgen
data_LiF
_symmetry_space_group_name_H-M   'P 1'
_cell_length_a   5.22644692
_cell_length_b   5.22644692
_cell_length_c   23.22144627
_cell_angle_alpha   90.00000000
_cell_angle_beta   90.00000000
_cell_angle_gamma   120.00000000
_symmetry_Int_Tables_number   1
_chemical_formula_structural   LiF
_chemical_formula_sum   'Li20 F20'
_cell_volume   549.32957968
_cell_formula_units_Z   20
loop_
 _symmetry_equiv_pos_site_id
 _symmetry_equiv_pos_as_xyz
  1  'x, y, z'
loop_
 _atom_site_type_symbol
 _atom_site_label
 _atom_site_symmetry_multiplicity
 _atom_site_fract_x
 _atom_site_fract_y
 _atom_site_fract_z
 _atom_site_occupancy
  F  F0  1  0.66666667  0.33333333  0.00000000  1
  F  F1  1  0.92521014  0.48259996  0.81537106  1
  F  F2  1  0.51740004  0.44261017  0.81537106  1
  F  F3  1  0.55738983  0.07478986  0.81537106  1
  F  F4  1  0.51740004  0.07478986  0.18462894  1
  F  F5  1  0.55738983  0.48259996  0.18462894  1
  F  F6  1  0.92521014  0.44261017  0.18462894  1
  F  F7  1  0.00808523  0.31894549  0.38392301  1
  F  F8  1  0.68105451  0.68913974  0.38392301  1
  F  F9  1  0.31086026  0.99191477  0.38392301  1
  F  F10  1  0.68105451  0.99191477  0.61607699  1
  F  F11  1  0.31086026  0.31894549  0.61607699  1
  F  F12  1  0.00808523  0.68913974  0.61607699  1
  F  F13  1  0.29851659  0.91617162  0.60195834  1
  F  F14  1  0.08382838  0.38234497  0.60195834  1
  F  F15  1  0.61765503  0.70148341  0.60195834  1
  F  F16  1  0.08382838  0.70148341  0.39804166  1
  F  F17  1  0.61765503  0.91617162  0.39804166  1
  F  F18  1  0.29851659  0.38234497  0.39804166  1
  F  F19  1  0.00000000  0.00000000  0.50000000  1
  Li  Li20  1  0.33333333  0.66666667  0.84704406  1
  Li  Li21  1  0.33333333  0.66666667  0.15295594  1
  Li  Li22  1  0.17483161  0.68078644  0.75273826  1
  Li  Li23  1  -0.68078644  -0.50595483  0.75273826  1
  Li  Li24  1  0.50595483  -0.17483161  0.75273826  1
  Li  Li25  1  -0.68078644  -0.17483161  -0.75273826  1
  Li  Li26  1  0.50595483  0.68078644  -0.75273826  1
  Li  Li27  1  0.17483161  -0.50595483  -0.75273826  1
  Li  Li28  1  0.66666667  0.33333333  0.29774533  1
  Li  Li29  1  0.66666667  0.33333333  0.70225467  1
  Li  Li30  1  0.08459681  0.42853858  0.88217962  1
  Li  Li31  1  0.57146142  0.65605823  0.88217962  1
  Li  Li32  1  0.34394177  0.91540319  0.88217962  1
  Li  Li33  1  0.57146142  0.91540319  0.11782038  1
  Li  Li34  1  0.34394177  0.42853858  0.11782038  1
  Li  Li35  1  0.08459681  0.65605823  0.11782038  1
  Li  Li36  1  0.09638062  0.90361938  0.00000000  1
  Li  Li37  1  0.09638062  0.19276124  0.00000000  1
  Li  Li38  1  0.80723876  0.90361938  0.00000000  1
  Li  Li39  1  0.66666667  0.33333333  0.50000000  1
