# generated using pymatgen
data_LiF
_symmetry_space_group_name_H-M   'P 1'
_cell_length_a   5.85378022
_cell_length_b   4.50510871
_cell_length_c   9.04407885
_cell_angle_alpha   90.00000000
_cell_angle_beta   90.00000000
_cell_angle_gamma   90.00000000
_symmetry_Int_Tables_number   1
_chemical_formula_structural   LiF
_chemical_formula_sum   'Li14 F14'
_cell_volume   238.50969002
_cell_formula_units_Z   14
loop_
 _symmetry_equiv_pos_site_id
 _symmetry_equiv_pos_as_xyz
  1  'x, y, z'
loop_
 _atom_site_type_symbol
 _atom_site_label
 _atom_site_symmetry_multiplicity
 _atom_site_fract_x
 _atom_site_fract_y
 _atom_site_fract_z
 _atom_site_occupancy
  F  F0  1  0.72562896  0.78909733  0.24481892  1
  F  F1  1  -0.72562896  -0.78909733  0.24481892  1
  F  F2  1  -0.22562896  1.28909733  -0.24481892  1
  F  F3  1  1.22562896  -0.28909733  -0.24481892  1
  F  F4  1  -0.72562896  -0.78909733  -0.24481892  1
  F  F5  1  0.72562896  0.78909733  -0.24481892  1
  F  F6  1  1.22562896  -0.28909733  0.24481892  1
  F  F7  1  -0.22562896  1.28909733  0.24481892  1
  F  F8  1  0.69031550  0.36214466  0.50000000  1
  F  F9  1  0.30968450  0.63785534  0.50000000  1
  F  F10  1  0.80968450  0.86214466  0.50000000  1
  F  F11  1  0.19031550  0.13785534  0.50000000  1
  F  F12  1  0.00000000  0.00000000  0.50000000  1
  F  F13  1  0.50000000  0.50000000  0.50000000  1
  Li  Li14  1  0.00000000  0.50000000  0.50000000  1
  Li  Li15  1  0.50000000  -0.00000000  0.50000000  1
  Li  Li16  1  0.00000000  0.00000000  0.00000000  1
  Li  Li17  1  0.50000000  0.50000000  0.00000000  1
  Li  Li18  1  0.86363768  0.55179397  0.70265667  1
  Li  Li19  1  0.13636232  0.44820603  0.70265667  1
  Li  Li20  1  0.63636232  0.05179397  0.29734333  1
  Li  Li21  1  0.36363768  0.94820603  0.29734333  1
  Li  Li22  1  0.13636232  0.44820603  0.29734333  1
  Li  Li23  1  0.86363768  0.55179397  0.29734333  1
  Li  Li24  1  0.36363768  0.94820603  0.70265667  1
  Li  Li25  1  0.63636232  0.05179397  0.70265667  1
  Li  Li26  1  0.00000000  0.50000000  0.00000000  1
  Li  Li27  1  0.50000000  -0.00000000  0.00000000  1
