# generated using pymatgen
data_LiF
_symmetry_space_group_name_H-M   'P 1'
_cell_length_a   10.80632896
_cell_length_b   10.80632896
_cell_length_c   8.08028657
_cell_angle_alpha   90.00000000
_cell_angle_beta   90.00000000
_cell_angle_gamma   120.00000000
_symmetry_Int_Tables_number   1
_chemical_formula_structural   LiF
_chemical_formula_sum   'Li32 F32'
_cell_volume   817.17253761
_cell_formula_units_Z   32
loop_
 _symmetry_equiv_pos_site_id
 _symmetry_equiv_pos_as_xyz
  1  'x, y, z'
loop_
 _atom_site_type_symbol
 _atom_site_label
 _atom_site_symmetry_multiplicity
 _atom_site_fract_x
 _atom_site_fract_y
 _atom_site_fract_z
 _atom_site_occupancy
  F  F0  1  0.86326940  0.25208239  0.11243726  1
  F  F1  1  0.74791761  0.61118701  0.11243726  1
  F  F2  1  0.38881299  0.13673060  0.11243726  1
  F  F3  1  0.74791761  0.13673060  0.88756274  1
  F  F4  1  0.38881299  0.25208239  0.88756274  1
  F  F5  1  0.86326940  0.61118701  0.88756274  1
  F  F6  1  0.33794977  0.92106259  0.22202663  1
  F  F7  1  0.07893741  0.41688717  0.22202663  1
  F  F8  1  0.58311283  0.66205023  0.22202663  1
  F  F9  1  0.07893741  0.66205023  0.77797337  1
  F  F10  1  0.58311283  0.92106259  0.77797337  1
  F  F11  1  0.33794977  0.41688717  0.77797337  1
  F  F12  1  0.09462531  0.90537469  0.50000000  1
  F  F13  1  0.09462531  0.18925062  0.50000000  1
  F  F14  1  0.81074938  0.90537469  0.50000000  1
  F  F15  1  0.10454585  0.80555084  0.32313507  1
  F  F16  1  0.19444916  0.29899501  0.32313507  1
  F  F17  1  0.70100499  0.89545415  0.32313507  1
  F  F18  1  0.19444916  0.89545415  0.67686493  1
  F  F19  1  0.70100499  0.80555084  0.67686493  1
  F  F20  1  0.10454585  0.29899501  0.67686493  1
  F  F21  1  0.51465619  0.14471920  0.82965307  1
  F  F22  1  0.85528080  0.36993698  0.82965307  1
  F  F23  1  0.63006302  0.48534381  0.82965307  1
  F  F24  1  0.85528080  0.48534381  0.17034693  1
  F  F25  1  0.63006302  0.14471920  0.17034693  1
  F  F26  1  0.51465619  0.36993698  0.17034693  1
  F  F27  1  0.66666667  0.33333333  0.50000000  1
  F  F28  1  0.58417938  0.41582062  0.50000000  1
  F  F29  1  0.58417938  0.16835877  0.50000000  1
  F  F30  1  0.83164123  0.41582062  0.50000000  1
  F  F31  1  0.00000000  0.00000000  0.00000000  1
  Li  Li32  1  0.08814610  0.47907651  0.47286485  1
  Li  Li33  1  -0.47907651  -0.39093042  0.47286485  1
  Li  Li34  1  0.39093042  -0.08814610  0.47286485  1
  Li  Li35  1  -0.47907651  -0.08814610  -0.47286485  1
  Li  Li36  1  0.39093042  0.47907651  -0.47286485  1
  Li  Li37  1  0.08814610  -0.39093042  -0.47286485  1
  Li  Li38  1  0.03826840  0.68397262  0.34900992  1
  Li  Li39  1  0.31602738  0.35429579  0.34900992  1
  Li  Li40  1  0.64570421  0.96173160  0.34900992  1
  Li  Li41  1  0.31602738  0.96173160  0.65099008  1
  Li  Li42  1  0.64570421  0.68397262  0.65099008  1
  Li  Li43  1  0.03826840  0.35429579  0.65099008  1
  Li  Li44  1  0.92383340  0.81828554  0.40496733  1
  Li  Li45  1  0.18171446  0.10554786  0.40496733  1
  Li  Li46  1  0.89445214  0.07616660  0.40496733  1
  Li  Li47  1  0.18171446  0.07616660  0.59503267  1
  Li  Li48  1  0.89445214  0.81828554  0.59503267  1
  Li  Li49  1  0.92383340  0.10554786  0.59503267  1
  Li  Li50  1  0.84925294  0.17599940  0.25905598  1
  Li  Li51  1  0.82400060  0.67325353  0.25905598  1
  Li  Li52  1  0.32674647  0.15074706  0.25905598  1
  Li  Li53  1  0.82400060  0.15074706  0.74094402  1
  Li  Li54  1  0.32674647  0.17599940  0.74094402  1
  Li  Li55  1  0.84925294  0.67325353  0.74094402  1
  Li  Li56  1  0.66666667  0.33333333  0.00000000  1
  Li  Li57  1  0.28382572  0.36357332  0.14946254  1
  Li  Li58  1  0.63642668  0.92025239  0.14946254  1
  Li  Li59  1  0.07974761  0.71617428  0.14946254  1
  Li  Li60  1  0.63642668  0.71617428  0.85053746  1
  Li  Li61  1  0.07974761  0.36357332  0.85053746  1
  Li  Li62  1  0.28382572  0.92025239  0.85053746  1
  Li  Li63  1  0.00000000  0.00000000  0.50000000  1
