# generated using pymatgen
data_LiF
_symmetry_space_group_name_H-M   'P 1'
_cell_length_a   11.06660614
_cell_length_b   11.06660614
_cell_length_c   11.87263703
_cell_angle_alpha   90.00000000
_cell_angle_beta   90.00000000
_cell_angle_gamma   120.00000000
_symmetry_Int_Tables_number   1
_chemical_formula_structural   LiF
_chemical_formula_sum   'Li40 F40'
_cell_volume   1259.23483653
_cell_formula_units_Z   40
loop_
 _symmetry_equiv_pos_site_id
 _symmetry_equiv_pos_as_xyz
  1  'x, y, z'
loop_
 _atom_site_type_symbol
 _atom_site_label
 _atom_site_symmetry_multiplicity
 _atom_site_fract_x
 _atom_site_fract_y
 _atom_site_fract_z
 _atom_site_occupancy
  F  F0  1  0.00000000  0.00000000  0.41073684  1
  F  F1  1  0.00000000  0.00000000  0.58926316  1
  F  F2  1  0.18161957  0.14746764  -0.00000000  1
  F  F3  1  0.85253236  0.03415192  -0.00000000  1
  F  F4  1  0.96584808  0.81838043  0.00000000  1
  F  F5  1  0.14746764  0.18161957  -0.00000000  1
  F  F6  1  0.03415192  0.85253236  0.00000000  1
  F  F7  1  0.81838043  0.96584808  0.00000000  1
  F  F8  1  0.57203885  0.51799857  0.42119272  1
  F  F9  1  0.48200143  0.05404028  0.42119272  1
  F  F10  1  0.94595972  0.42796115  0.42119272  1
  F  F11  1  0.57203885  0.51799857  0.57880728  1
  F  F12  1  0.48200143  0.05404028  0.57880728  1
  F  F13  1  0.94595972  0.42796115  0.57880728  1
  F  F14  1  0.51799857  0.57203885  0.57880728  1
  F  F15  1  0.05404028  0.48200143  0.57880728  1
  F  F16  1  0.42796115  0.94595972  0.57880728  1
  F  F17  1  0.51799857  0.57203885  0.42119272  1
  F  F18  1  0.05404028  0.48200143  0.42119272  1
  F  F19  1  0.42796115  0.94595972  0.42119272  1
  F  F20  1  0.42101855  0.00000000  0.17812557  1
  F  F21  1  0.00000000  0.42101855  0.17812557  1
  F  F22  1  0.57898145  0.57898145  0.17812557  1
  F  F23  1  0.42101855  0.00000000  0.82187443  1
  F  F24  1  0.00000000  0.42101855  0.82187443  1
  F  F25  1  0.57898145  0.57898145  0.82187443  1
  F  F26  1  0.13301189  0.00000000  0.75056331  1
  F  F27  1  0.00000000  0.13301189  0.75056331  1
  F  F28  1  0.86698811  0.86698811  0.75056331  1
  F  F29  1  0.13301189  0.00000000  0.24943669  1
  F  F30  1  0.00000000  0.13301189  0.24943669  1
  F  F31  1  0.86698811  0.86698811  0.24943669  1
  F  F32  1  0.75790421  0.00000000  0.68210667  1
  F  F33  1  0.00000000  0.75790421  0.68210667  1
  F  F34  1  0.24209579  0.24209579  0.68210667  1
  F  F35  1  0.75790421  0.00000000  0.31789333  1
  F  F36  1  0.00000000  0.75790421  0.31789333  1
  F  F37  1  0.24209579  0.24209579  0.31789333  1
  F  F38  1  0.00000000  0.00000000  0.74881350  1
  F  F39  1  0.00000000  0.00000000  0.25118650  1
  Li  Li40  1  0.27809247  0.00000000  0.43223550  1
  Li  Li41  1  0.00000000  0.27809247  0.43223550  1
  Li  Li42  1  0.72190753  0.72190753  0.43223550  1
  Li  Li43  1  0.27809247  0.00000000  0.56776450  1
  Li  Li44  1  0.00000000  0.27809247  0.56776450  1
  Li  Li45  1  0.72190753  0.72190753  0.56776450  1
  Li  Li46  1  0.23915092  0.84707616  0.42251725  1
  Li  Li47  1  -0.84707616  -0.60792524  0.42251725  1
  Li  Li48  1  0.60792524  -0.23915092  0.42251725  1
  Li  Li49  1  0.23915092  0.84707616  -0.42251725  1
  Li  Li50  1  -0.84707616  -0.60792524  -0.42251725  1
  Li  Li51  1  0.60792524  -0.23915092  -0.42251725  1
  Li  Li52  1  0.84707616  0.23915092  -0.42251725  1
  Li  Li53  1  -0.60792524  -0.84707616  -0.42251725  1
  Li  Li54  1  -0.23915092  0.60792524  -0.42251725  1
  Li  Li55  1  0.84707616  0.23915092  0.42251725  1
  Li  Li56  1  -0.60792524  -0.84707616  0.42251725  1
  Li  Li57  1  -0.23915092  0.60792524  0.42251725  1
  Li  Li58  1  0.17301766  0.91562875  0.00000000  1
  Li  Li59  1  0.08437125  0.25738891  0.00000000  1
  Li  Li60  1  0.74261109  0.82698234  0.00000000  1
  Li  Li61  1  0.91562875  0.17301766  0.00000000  1
  Li  Li62  1  0.25738891  0.08437125  0.00000000  1
  Li  Li63  1  0.82698234  0.74261109  -0.00000000  1
  Li  Li64  1  0.22696896  0.00000000  0.33174824  1
  Li  Li65  1  0.00000000  0.22696896  0.33174824  1
  Li  Li66  1  0.77303104  0.77303104  0.33174824  1
  Li  Li67  1  0.22696896  0.00000000  0.66825176  1
  Li  Li68  1  0.00000000  0.22696896  0.66825176  1
  Li  Li69  1  0.77303104  0.77303104  0.66825176  1
  Li  Li70  1  0.76970906  0.00000000  0.50000000  1
  Li  Li71  1  0.00000000  0.76970906  0.50000000  1
  Li  Li72  1  0.23029094  0.23029094  0.50000000  1
  Li  Li73  1  0.67766840  0.23957382  0.50000000  1
  Li  Li74  1  0.76042618  0.43809458  0.50000000  1
  Li  Li75  1  0.56190542  0.32233160  0.50000000  1
  Li  Li76  1  0.23957382  0.67766840  0.50000000  1
  Li  Li77  1  0.43809458  0.76042618  0.50000000  1
  Li  Li78  1  0.32233160  0.56190542  0.50000000  1
  Li  Li79  1  0.00000000  0.00000000  0.00000000  1
