# generated using pymatgen
data_Li2Y2As4P2Se
_symmetry_space_group_name_H-M   'P 1'
_cell_length_a   5.39474481
_cell_length_b   5.68368728
_cell_length_c   6.83003078
_cell_angle_alpha   93.58438243
_cell_angle_beta   96.74863231
_cell_angle_gamma   101.60280374
_symmetry_Int_Tables_number   1
_chemical_formula_structural   Li2Y2As4P2Se
_chemical_formula_sum   'Li2 Y2 As4 P2 Se1'
_cell_volume   202.92130842
_cell_formula_units_Z   1
loop_
 _symmetry_equiv_pos_site_id
 _symmetry_equiv_pos_as_xyz
  1  'x, y, z'
loop_
 _atom_site_type_symbol
 _atom_site_label
 _atom_site_symmetry_multiplicity
 _atom_site_fract_x
 _atom_site_fract_y
 _atom_site_fract_z
 _atom_site_occupancy
  Se  Se0  1  0.12500000  0.00000000  0.25000000  1
  Y  Y1  1  0.00000000  0.00000000  0.00000000  1
  Y  Y2  1  0.37500000  0.00000000  0.25000000  1
  P  P3  1  0.25000000  0.25000000  0.25000000  1
  P  P4  1  0.00000000  0.25000000  0.12500000  1
  As  As5  1  0.42025448  0.97052617  0.49798016  1
  As  As6  1  0.06488205  0.11107748  0.78339901  1
  As  As7  1  0.94298794  0.28982669  0.94983708  1
  As  As8  1  0.44369484  0.58738390  0.82008016  1
  Li  Li9  1  0.43423973  0.96426578  0.17060320  1
  Li  Li10  1  0.93808165  0.91591923  0.37328862  1
