# generated using pymatgen
data_Li2Y2AsP2Se
_symmetry_space_group_name_H-M   'P 1'
_cell_length_a   4.29875197
_cell_length_b   4.54382058
_cell_length_c   6.43599234
_cell_angle_alpha   95.67481759
_cell_angle_beta   100.59198489
_cell_angle_gamma   108.07785071
_symmetry_Int_Tables_number   1
_chemical_formula_structural   Li2Y2AsP2Se
_chemical_formula_sum   'Li2 Y2 As1 P2 Se1'
_cell_volume   115.82380391
_cell_formula_units_Z   1
loop_
 _symmetry_equiv_pos_site_id
 _symmetry_equiv_pos_as_xyz
  1  'x, y, z'
loop_
 _atom_site_type_symbol
 _atom_site_label
 _atom_site_symmetry_multiplicity
 _atom_site_fract_x
 _atom_site_fract_y
 _atom_site_fract_z
 _atom_site_occupancy
  Se  Se0  1  0.00000000  0.00000000  0.00000000  1
  P  P1  1  0.50000000  0.50000000  0.50000000  1
  P  P2  1  0.25000000  0.25000000  0.25000000  1
  As  As3  1  0.75000000  0.25000000  0.00000000  1
  Li  Li4  1  0.25000000  0.75000000  0.50000000  1
  Li  Li5  1  0.45625616  0.66333440  0.32040156  1
  Y  Y6  1  0.80030660  0.20709627  0.26089373  1
  Y  Y7  1  0.76283685  0.06126990  0.66291457  1
