# generated using pymatgen
data_LiY2Te4MoP2
_symmetry_space_group_name_H-M   'P 1'
_cell_length_a   4.69404204
_cell_length_b   4.81699436
_cell_length_c   6.82708448
_cell_angle_alpha   95.21579004
_cell_angle_beta   101.06967385
_cell_angle_gamma   110.49616248
_symmetry_Int_Tables_number   1
_chemical_formula_structural   LiY2Te4MoP2
_chemical_formula_sum   'Li1 Y2 Te4 Mo1 P2'
_cell_volume   139.79049425
_cell_formula_units_Z   1
loop_
 _symmetry_equiv_pos_site_id
 _symmetry_equiv_pos_as_xyz
  1  'x, y, z'
loop_
 _atom_site_type_symbol
 _atom_site_label
 _atom_site_symmetry_multiplicity
 _atom_site_fract_x
 _atom_site_fract_y
 _atom_site_fract_z
 _atom_site_occupancy
  Te  Te0  1  0.00000000  0.00000000  0.00000000  1
  Te  Te1  1  0.50000000  0.50000000  0.50000000  1
  Te  Te2  1  0.25000000  0.25000000  0.25000000  1
  Te  Te3  1  0.75000000  0.25000000  0.00000000  1
  P  P4  1  0.25000000  0.75000000  0.50000000  1
  P  P5  1  0.05821653  0.63792653  0.55985755  1
  Mo  Mo6  1  0.07484134  0.13824468  0.27836546  1
  Li  Li7  1  0.54439943  0.26242601  0.72869622  1
  Y  Y8  1  0.75553191  0.22063072  0.84468007  1
  Y  Y9  1  0.13168787  0.10419083  0.43537848  1
