# generated using pymatgen
data_LiCaF3
_symmetry_space_group_name_H-M   'P 1'
_cell_length_a   15.70037247
_cell_length_b   15.70037247
_cell_length_c   5.52543429
_cell_angle_alpha   90.00000000
_cell_angle_beta   90.00000000
_cell_angle_gamma   120.00000000
_symmetry_Int_Tables_number   1
_chemical_formula_structural   LiCaF3
_chemical_formula_sum   'Li18 Ca18 F54'
_cell_volume   1179.55164660
_cell_formula_units_Z   18
loop_
 _symmetry_equiv_pos_site_id
 _symmetry_equiv_pos_as_xyz
  1  'x, y, z'
loop_
 _atom_site_type_symbol
 _atom_site_label
 _atom_site_symmetry_multiplicity
 _atom_site_fract_x
 _atom_site_fract_y
 _atom_site_fract_z
 _atom_site_occupancy
  Ca  Ca0  1  0.40934970  0.00000000  0.25000000  1
  Ca  Ca1  1  0.00000000  0.40934970  0.25000000  1
  Ca  Ca2  1  0.59065030  0.59065030  0.25000000  1
  Ca  Ca3  1  0.59065030  -0.00000000  0.75000000  1
  Ca  Ca4  1  0.00000000  0.59065030  0.75000000  1
  Ca  Ca5  1  0.40934970  0.40934970  0.75000000  1
  Ca  Ca6  1  0.07601636  0.33333333  0.58333333  1
  Ca  Ca7  1  0.66666667  0.74268303  0.58333333  1
  Ca  Ca8  1  0.25731697  0.92398364  0.58333333  1
  Ca  Ca9  1  0.25731697  0.33333333  0.08333333  1
  Ca  Ca10  1  0.66666667  0.92398364  0.08333333  1
  Ca  Ca11  1  0.07601636  0.74268303  0.08333333  1
  Ca  Ca12  1  0.74268303  0.66666667  0.91666667  1
  Ca  Ca13  1  0.33333333  0.07601636  0.91666667  1
  Ca  Ca14  1  0.92398364  0.25731697  0.91666667  1
  Ca  Ca15  1  0.92398364  0.66666667  0.41666667  1
  Ca  Ca16  1  0.33333333  0.25731697  0.41666667  1
  Ca  Ca17  1  0.74268303  0.07601636  0.41666667  1
  F  F18  1  0.00000000  0.00000000  0.31947787  1
  F  F19  1  0.00000000  0.00000000  0.18052213  1
  F  F20  1  0.00000000  0.00000000  0.68052213  1
  F  F21  1  0.00000000  0.00000000  0.81947787  1
  F  F22  1  0.66666667  0.33333333  0.65281121  1
  F  F23  1  0.66666667  0.33333333  0.51385546  1
  F  F24  1  0.66666667  0.33333333  0.01385546  1
  F  F25  1  0.66666667  0.33333333  0.15281121  1
  F  F26  1  0.33333333  0.66666667  0.98614454  1
  F  F27  1  0.33333333  0.66666667  0.84718879  1
  F  F28  1  0.33333333  0.66666667  0.34718879  1
  F  F29  1  0.33333333  0.66666667  0.48614454  1
  F  F30  1  0.68048827  0.48164440  0.67536957  1
  F  F31  1  -0.48164440  0.19884387  0.67536957  1
  F  F32  1  -0.19884387  -0.68048827  0.67536957  1
  F  F33  1  0.48164440  0.68048827  -0.17536957  1
  F  F34  1  0.19884387  -0.48164440  -0.17536957  1
  F  F35  1  -0.68048827  -0.19884387  -0.17536957  1
  F  F36  1  -0.68048827  -0.48164440  -0.67536957  1
  F  F37  1  0.48164440  -0.19884387  -0.67536957  1
  F  F38  1  0.19884387  0.68048827  -0.67536957  1
  F  F39  1  -0.48164440  -0.68048827  1.17536957  1
  F  F40  1  -0.19884387  0.48164440  1.17536957  1
  F  F41  1  0.68048827  0.19884387  1.17536957  1
  F  F42  1  1.34715494  0.81497773  1.00870291  1
  F  F43  1  0.18502227  0.53217720  1.00870291  1
  F  F44  1  0.46782280  -0.34715494  1.00870291  1
  F  F45  1  1.14831107  1.01382160  0.15796376  1
  F  F46  1  0.86551054  -0.14831107  0.15796376  1
  F  F47  1  -0.01382160  0.13448946  0.15796376  1
  F  F48  1  -0.01382160  -0.14831107  -0.34203624  1
  F  F49  1  1.14831107  0.13448946  -0.34203624  1
  F  F50  1  0.86551054  1.01382160  -0.34203624  1
  F  F51  1  0.18502227  -0.34715494  1.50870291  1
  F  F52  1  0.46782280  0.81497773  1.50870291  1
  F  F53  1  1.34715494  0.53217720  1.50870291  1
  F  F54  1  1.01382160  1.14831107  1.34203624  1
  F  F55  1  -0.14831107  0.86551054  1.34203624  1
  F  F56  1  0.13448946  -0.01382160  1.34203624  1
  F  F57  1  0.81497773  1.34715494  0.49129709  1
  F  F58  1  0.53217720  0.18502227  0.49129709  1
  F  F59  1  -0.34715494  0.46782280  0.49129709  1
  F  F60  1  -0.34715494  0.18502227  -0.00870291  1
  F  F61  1  0.81497773  0.46782280  -0.00870291  1
  F  F62  1  0.53217720  1.34715494  -0.00870291  1
  F  F63  1  -0.14831107  -0.01382160  1.84203624  1
  F  F64  1  0.13448946  1.14831107  1.84203624  1
  F  F65  1  1.01382160  0.86551054  1.84203624  1
  F  F66  1  0.00000000  0.00000000  0.00000000  1
  F  F67  1  0.00000000  0.00000000  0.50000000  1
  F  F68  1  0.66666667  0.33333333  0.33333333  1
  F  F69  1  0.66666667  0.33333333  0.83333333  1
  F  F70  1  0.33333333  0.66666667  0.66666667  1
  F  F71  1  0.33333333  0.66666667  0.16666667  1
  Li  Li72  1  0.50000000  -0.00000000  0.00000000  1
  Li  Li73  1  0.00000000  0.50000000  0.00000000  1
  Li  Li74  1  0.50000000  0.50000000  0.00000000  1
  Li  Li75  1  0.00000000  0.50000000  0.50000000  1
  Li  Li76  1  0.50000000  -0.00000000  0.50000000  1
  Li  Li77  1  0.50000000  0.50000000  0.50000000  1
  Li  Li78  1  0.16666667  0.33333333  0.33333333  1
  Li  Li79  1  0.66666667  0.83333333  0.33333333  1
  Li  Li80  1  0.16666667  0.83333333  0.33333333  1
  Li  Li81  1  0.66666667  0.83333333  0.83333333  1
  Li  Li82  1  0.16666667  0.33333333  0.83333333  1
  Li  Li83  1  0.16666667  0.83333333  0.83333333  1
  Li  Li84  1  0.83333333  0.66666667  0.66666667  1
  Li  Li85  1  0.33333333  0.16666667  0.66666667  1
  Li  Li86  1  0.83333333  0.16666667  0.66666667  1
  Li  Li87  1  0.33333333  0.16666667  0.16666667  1
  Li  Li88  1  0.83333333  0.66666667  0.16666667  1
  Li  Li89  1  0.83333333  0.16666667  0.16666667  1
