# generated using pymatgen
data_Li4TeF2
_symmetry_space_group_name_H-M   'P 1'
_cell_length_a   18.64839612
_cell_length_b   13.62875677
_cell_length_c   14.79611616
_cell_angle_alpha   90.00000000
_cell_angle_beta   90.00000000
_cell_angle_gamma   90.00000000
_symmetry_Int_Tables_number   1
_chemical_formula_structural   Li4TeF2
_chemical_formula_sum   'Li96 Te24 F48'
_cell_volume   3760.49883770
_cell_formula_units_Z   24
loop_
 _symmetry_equiv_pos_site_id
 _symmetry_equiv_pos_as_xyz
  1  'x, y, z'
loop_
 _atom_site_type_symbol
 _atom_site_label
 _atom_site_symmetry_multiplicity
 _atom_site_fract_x
 _atom_site_fract_y
 _atom_site_fract_z
 _atom_site_occupancy
  F  F0  1  0.13758123  0.49777027  0.74672726  1
  F  F1  1  0.61241877  0.25222973  0.74672726  1
  F  F2  1  0.61241877  0.49777027  0.00327274  1
  F  F3  1  0.13758123  0.25222973  0.00327274  1
  F  F4  1  -0.13758123  -0.49777027  -0.74672726  1
  F  F5  1  0.38758123  0.74777027  -0.74672726  1
  F  F6  1  0.38758123  -0.49777027  0.99672726  1
  F  F7  1  -0.13758123  0.74777027  0.99672726  1
  F  F8  1  0.13758123  0.99777027  1.24672726  1
  F  F9  1  0.61241877  0.75222973  1.24672726  1
  F  F10  1  0.61241877  0.99777027  0.50327274  1
  F  F11  1  0.13758123  0.75222973  0.50327274  1
  F  F12  1  -0.13758123  0.00222973  -0.24672726  1
  F  F13  1  0.38758123  1.24777027  -0.24672726  1
  F  F14  1  0.38758123  0.00222973  1.49672726  1
  F  F15  1  -0.13758123  1.24777027  1.49672726  1
  F  F16  1  0.63758123  0.49777027  1.24672726  1
  F  F17  1  1.11241877  0.25222973  1.24672726  1
  F  F18  1  1.11241877  0.49777027  0.50327274  1
  F  F19  1  0.63758123  0.25222973  0.50327274  1
  F  F20  1  0.36241877  -0.49777027  -0.24672726  1
  F  F21  1  0.88758123  0.74777027  -0.24672726  1
  F  F22  1  0.88758123  -0.49777027  1.49672726  1
  F  F23  1  0.36241877  0.74777027  1.49672726  1
  F  F24  1  0.63758123  0.99777027  0.74672726  1
  F  F25  1  1.11241877  0.75222973  0.74672726  1
  F  F26  1  1.11241877  0.99777027  0.00327274  1
  F  F27  1  0.63758123  0.75222973  0.00327274  1
  F  F28  1  0.36241877  0.00222973  -0.74672726  1
  F  F29  1  0.88758123  1.24777027  -0.74672726  1
  F  F30  1  0.88758123  0.00222973  0.99672726  1
  F  F31  1  0.36241877  1.24777027  0.99672726  1
  F  F32  1  0.12500000  0.12500000  0.51729302  1
  F  F33  1  0.62500000  0.12500000  0.23270698  1
  F  F34  1  0.87500000  0.87500000  0.48270698  1
  F  F35  1  0.37500000  0.87500000  0.76729302  1
  F  F36  1  0.12500000  0.62500000  0.01729302  1
  F  F37  1  0.62500000  0.62500000  0.73270698  1
  F  F38  1  0.87500000  0.37500000  0.98270698  1
  F  F39  1  0.37500000  0.37500000  0.26729302  1
  F  F40  1  0.62500000  0.12500000  0.01729302  1
  F  F41  1  0.12500000  0.12500000  0.73270698  1
  F  F42  1  0.37500000  0.87500000  0.98270698  1
  F  F43  1  0.87500000  0.87500000  0.26729302  1
  F  F44  1  0.62500000  0.62500000  0.51729302  1
  F  F45  1  0.12500000  0.62500000  0.23270698  1
  F  F46  1  0.37500000  0.37500000  0.48270698  1
  F  F47  1  0.87500000  0.37500000  0.76729302  1
  Li  Li48  1  0.00000000  0.00000000  0.00000000  1
  Li  Li49  1  0.75000000  0.75000000  0.00000000  1
  Li  Li50  1  0.75000000  0.00000000  0.75000000  1
  Li  Li51  1  0.00000000  0.75000000  0.75000000  1
  Li  Li52  1  0.00000000  0.50000000  0.50000000  1
  Li  Li53  1  0.75000000  0.25000000  0.50000000  1
  Li  Li54  1  0.75000000  0.50000000  0.25000000  1
  Li  Li55  1  0.00000000  0.25000000  0.25000000  1
  Li  Li56  1  0.50000000  0.00000000  0.50000000  1
  Li  Li57  1  0.25000000  0.75000000  0.50000000  1
  Li  Li58  1  0.25000000  0.00000000  0.25000000  1
  Li  Li59  1  0.50000000  0.75000000  0.25000000  1
  Li  Li60  1  0.50000000  0.50000000  -0.00000000  1
  Li  Li61  1  0.25000000  0.25000000  -0.00000000  1
  Li  Li62  1  0.25000000  0.50000000  0.75000000  1
  Li  Li63  1  0.50000000  0.25000000  0.75000000  1
  Li  Li64  1  0.83516887  0.30004544  0.80018559  1
  Li  Li65  1  0.91483113  0.44995456  0.80018559  1
  Li  Li66  1  0.91483113  0.30004544  0.94981441  1
  Li  Li67  1  0.83516887  0.44995456  0.94981441  1
  Li  Li68  1  0.16483113  0.69995456  0.19981441  1
  Li  Li69  1  0.08516887  0.55004544  0.19981441  1
  Li  Li70  1  0.08516887  0.69995456  0.05018559  1
  Li  Li71  1  0.16483113  0.55004544  0.05018559  1
  Li  Li72  1  0.83516887  0.80004544  0.30018559  1
  Li  Li73  1  0.91483113  0.94995456  0.30018559  1
  Li  Li74  1  0.91483113  0.80004544  0.44981441  1
  Li  Li75  1  0.83516887  0.94995456  0.44981441  1
  Li  Li76  1  0.16483113  0.19995456  0.69981441  1
  Li  Li77  1  0.08516887  0.05004544  0.69981441  1
  Li  Li78  1  0.08516887  0.19995456  0.55018559  1
  Li  Li79  1  0.16483113  0.05004544  0.55018559  1
  Li  Li80  1  0.33516887  0.30004544  0.30018559  1
  Li  Li81  1  0.41483113  0.44995456  0.30018559  1
  Li  Li82  1  0.41483113  0.30004544  0.44981441  1
  Li  Li83  1  0.33516887  0.44995456  0.44981441  1
  Li  Li84  1  0.66483113  0.69995456  0.69981441  1
  Li  Li85  1  0.58516887  0.55004544  0.69981441  1
  Li  Li86  1  0.58516887  0.69995456  0.55018559  1
  Li  Li87  1  0.66483113  0.55004544  0.55018559  1
  Li  Li88  1  0.33516887  0.80004544  0.80018559  1
  Li  Li89  1  0.41483113  0.94995456  0.80018559  1
  Li  Li90  1  0.41483113  0.80004544  0.94981441  1
  Li  Li91  1  0.33516887  0.94995456  0.94981441  1
  Li  Li92  1  0.66483113  0.19995456  0.19981441  1
  Li  Li93  1  0.58516887  0.05004544  0.19981441  1
  Li  Li94  1  0.58516887  0.19995456  0.05018559  1
  Li  Li95  1  0.66483113  0.05004544  0.05018559  1
  Li  Li96  1  0.94532499  0.28768328  0.47702730  1
  Li  Li97  1  0.80467501  0.46231672  0.47702730  1
  Li  Li98  1  0.80467501  0.28768328  0.27297270  1
  Li  Li99  1  0.94532499  0.46231672  0.27297270  1
  Li  Li100  1  0.05467501  0.71231672  0.52297270  1
  Li  Li101  1  0.19532499  0.53768328  0.52297270  1
  Li  Li102  1  0.19532499  0.71231672  0.72702730  1
  Li  Li103  1  0.05467501  0.53768328  0.72702730  1
  Li  Li104  1  0.94532499  0.78768328  0.97702730  1
  Li  Li105  1  0.80467501  0.96231672  0.97702730  1
  Li  Li106  1  0.80467501  0.78768328  0.77297270  1
  Li  Li107  1  0.94532499  0.96231672  0.77297270  1
  Li  Li108  1  0.05467501  0.21231672  0.02297270  1
  Li  Li109  1  0.19532499  0.03768328  0.02297270  1
  Li  Li110  1  0.19532499  0.21231672  0.22702730  1
  Li  Li111  1  0.05467501  0.03768328  0.22702730  1
  Li  Li112  1  0.44532499  0.28768328  0.97702730  1
  Li  Li113  1  0.30467501  0.46231672  0.97702730  1
  Li  Li114  1  0.30467501  0.28768328  0.77297270  1
  Li  Li115  1  0.44532499  0.46231672  0.77297270  1
  Li  Li116  1  0.55467501  0.71231672  0.02297270  1
  Li  Li117  1  0.69532499  0.53768328  0.02297270  1
  Li  Li118  1  0.69532499  0.71231672  0.22702730  1
  Li  Li119  1  0.55467501  0.53768328  0.22702730  1
  Li  Li120  1  0.44532499  0.78768328  0.47702730  1
  Li  Li121  1  0.30467501  0.96231672  0.47702730  1
  Li  Li122  1  0.30467501  0.78768328  0.27297270  1
  Li  Li123  1  0.44532499  0.96231672  0.27297270  1
  Li  Li124  1  0.55467501  0.21231672  0.52297270  1
  Li  Li125  1  0.69532499  0.03768328  0.52297270  1
  Li  Li126  1  0.69532499  0.21231672  0.72702730  1
  Li  Li127  1  0.55467501  0.03768328  0.72702730  1
  Li  Li128  1  0.46715801  0.12500000  0.12500000  1
  Li  Li129  1  0.28284199  0.62500000  0.12500000  1
  Li  Li130  1  0.53284199  0.87500000  0.87500000  1
  Li  Li131  1  0.71715801  0.37500000  0.87500000  1
  Li  Li132  1  0.46715801  0.62500000  0.62500000  1
  Li  Li133  1  0.28284199  0.12500000  0.62500000  1
  Li  Li134  1  0.53284199  0.37500000  0.37500000  1
  Li  Li135  1  0.71715801  0.87500000  0.37500000  1
  Li  Li136  1  0.96715801  0.12500000  0.62500000  1
  Li  Li137  1  0.78284199  0.62500000  0.62500000  1
  Li  Li138  1  0.03284199  0.87500000  0.37500000  1
  Li  Li139  1  0.21715801  0.37500000  0.37500000  1
  Li  Li140  1  0.96715801  0.62500000  0.12500000  1
  Li  Li141  1  0.78284199  0.12500000  0.12500000  1
  Li  Li142  1  0.03284199  0.37500000  0.87500000  1
  Li  Li143  1  0.21715801  0.87500000  0.87500000  1
  Te  Te144  1  0.12500000  0.06856985  0.12500000  1
  Te  Te145  1  0.62500000  0.68143015  0.12500000  1
  Te  Te146  1  0.87500000  0.93143015  0.87500000  1
  Te  Te147  1  0.37500000  0.31856985  0.87500000  1
  Te  Te148  1  0.12500000  0.56856985  0.62500000  1
  Te  Te149  1  0.62500000  0.18143015  0.62500000  1
  Te  Te150  1  0.87500000  0.43143015  0.37500000  1
  Te  Te151  1  0.37500000  0.81856985  0.37500000  1
  Te  Te152  1  0.62500000  0.06856985  0.62500000  1
  Te  Te153  1  0.12500000  0.68143015  0.62500000  1
  Te  Te154  1  0.37500000  0.93143015  0.37500000  1
  Te  Te155  1  0.87500000  0.31856985  0.37500000  1
  Te  Te156  1  0.62500000  0.56856985  0.12500000  1
  Te  Te157  1  0.12500000  0.18143015  0.12500000  1
  Te  Te158  1  0.37500000  0.43143015  0.87500000  1
  Te  Te159  1  0.87500000  0.81856985  0.87500000  1
  Te  Te160  1  0.12500000  0.12500000  0.62500000  1
  Te  Te161  1  0.87500000  0.87500000  0.37500000  1
  Te  Te162  1  0.12500000  0.62500000  0.12500000  1
  Te  Te163  1  0.87500000  0.37500000  0.87500000  1
  Te  Te164  1  0.62500000  0.12500000  0.12500000  1
  Te  Te165  1  0.37500000  0.87500000  0.87500000  1
  Te  Te166  1  0.62500000  0.62500000  0.62500000  1
  Te  Te167  1  0.37500000  0.37500000  0.37500000  1
