# generated using pymatgen
data_LiF
_symmetry_space_group_name_H-M   'P 1'
_cell_length_a   6.56505654
_cell_length_b   8.88734750
_cell_length_c   7.35157788
_cell_angle_alpha   90.00000000
_cell_angle_beta   90.00000000
_cell_angle_gamma   90.00000000
_symmetry_Int_Tables_number   1
_chemical_formula_structural   LiF
_chemical_formula_sum   'Li24 F24'
_cell_volume   428.93471331
_cell_formula_units_Z   24
loop_
 _symmetry_equiv_pos_site_id
 _symmetry_equiv_pos_as_xyz
  1  'x, y, z'
loop_
 _atom_site_type_symbol
 _atom_site_label
 _atom_site_symmetry_multiplicity
 _atom_site_fract_x
 _atom_site_fract_y
 _atom_site_fract_z
 _atom_site_occupancy
  F  F0  1  0.54715432  0.57483580  0.09922984  1
  F  F1  1  0.95284568  0.42516420  0.59922984  1
  F  F2  1  0.45284568  0.07483580  0.90077016  1
  F  F3  1  0.04715432  0.92516420  0.40077016  1
  F  F4  1  0.45284568  0.42516420  0.90077016  1
  F  F5  1  0.04715432  0.57483580  0.40077016  1
  F  F6  1  0.54715432  0.92516420  0.09922984  1
  F  F7  1  0.95284568  0.07483580  0.59922984  1
  F  F8  1  0.27259011  0.53962769  0.23590376  1
  F  F9  1  0.22740989  0.46037231  0.73590376  1
  F  F10  1  0.72740989  0.03962769  0.76409624  1
  F  F11  1  0.77259011  0.96037231  0.26409624  1
  F  F12  1  0.72740989  0.46037231  0.76409624  1
  F  F13  1  0.77259011  0.53962769  0.26409624  1
  F  F14  1  0.27259011  0.96037231  0.23590376  1
  F  F15  1  0.22740989  0.03962769  0.73590376  1
  F  F16  1  0.47046694  0.07632142  0.24792718  1
  F  F17  1  0.02953306  0.92367858  0.74792718  1
  F  F18  1  0.52953306  0.57632142  0.75207282  1
  F  F19  1  0.97046694  0.42367858  0.25207282  1
  F  F20  1  0.52953306  0.92367858  0.75207282  1
  F  F21  1  0.97046694  0.07632142  0.25207282  1
  F  F22  1  0.47046694  0.42367858  0.24792718  1
  F  F23  1  0.02953306  0.57632142  0.74792718  1
  Li  Li24  1  0.63241936  0.25000000  0.08666521  1
  Li  Li25  1  0.86758064  0.75000000  0.58666521  1
  Li  Li26  1  0.36758064  0.75000000  0.91333479  1
  Li  Li27  1  0.13241936  0.25000000  0.41333479  1
  Li  Li28  1  0.55422566  0.25000000  0.73180922  1
  Li  Li29  1  0.94577434  0.75000000  0.23180922  1
  Li  Li30  1  0.44577434  0.75000000  0.26819078  1
  Li  Li31  1  0.05422566  0.25000000  0.76819078  1
  Li  Li32  1  0.00000000  0.00000000  0.50000000  1
  Li  Li33  1  0.50000000  0.00000000  -0.00000000  1
  Li  Li34  1  0.00000000  0.50000000  0.50000000  1
  Li  Li35  1  0.50000000  0.50000000  0.00000000  1
  Li  Li36  1  0.00000000  0.00000000  0.00000000  1
  Li  Li37  1  0.50000000  0.00000000  0.50000000  1
  Li  Li38  1  0.00000000  0.50000000  0.00000000  1
  Li  Li39  1  0.50000000  0.50000000  0.50000000  1
  Li  Li40  1  0.16541289  0.42129105  0.93377189  1
  Li  Li41  1  0.33458711  -0.42129105  1.43377189  1
  Li  Li42  1  -0.16541289  0.92129105  -0.93377189  1
  Li  Li43  1  0.66541289  0.07870895  -0.43377189  1
  Li  Li44  1  -0.16541289  -0.42129105  -0.93377189  1
  Li  Li45  1  0.66541289  0.42129105  -0.43377189  1
  Li  Li46  1  0.16541289  0.07870895  0.93377189  1
  Li  Li47  1  0.33458711  0.92129105  1.43377189  1
