# generated using pymatgen
data_LiF
_symmetry_space_group_name_H-M   'P 1'
_cell_length_a   6.86105913
_cell_length_b   8.66206499
_cell_length_c   14.61012597
_cell_angle_alpha   90.00000000
_cell_angle_beta   90.00000000
_cell_angle_gamma   90.00000000
_symmetry_Int_Tables_number   1
_chemical_formula_structural   LiF
_chemical_formula_sum   'Li28 F28'
_cell_volume   868.29352138
_cell_formula_units_Z   28
loop_
 _symmetry_equiv_pos_site_id
 _symmetry_equiv_pos_as_xyz
  1  'x, y, z'
loop_
 _atom_site_type_symbol
 _atom_site_label
 _atom_site_symmetry_multiplicity
 _atom_site_fract_x
 _atom_site_fract_y
 _atom_site_fract_z
 _atom_site_occupancy
  F  F0  1  0.60773865  0.21988126  0.82100354  1
  F  F1  1  0.39226135  0.78011874  0.82100354  1
  F  F2  1  0.89226135  0.71988126  0.17899646  1
  F  F3  1  0.10773865  0.28011874  0.17899646  1
  F  F4  1  0.39226135  0.78011874  0.17899646  1
  F  F5  1  0.60773865  0.21988126  0.17899646  1
  F  F6  1  0.10773865  0.28011874  0.82100354  1
  F  F7  1  0.89226135  0.71988126  0.82100354  1
  F  F8  1  0.71512043  0.21775667  0.50000000  1
  F  F9  1  0.28487957  0.78224333  0.50000000  1
  F  F10  1  0.78487957  0.71775667  0.50000000  1
  F  F11  1  0.21512043  0.28224333  0.50000000  1
  F  F12  1  0.28281465  0.14002239  0.27974715  1
  F  F13  1  0.71718535  0.85997761  0.27974715  1
  F  F14  1  0.21718535  0.64002239  0.72025285  1
  F  F15  1  0.78281465  0.35997761  0.72025285  1
  F  F16  1  0.71718535  0.85997761  0.72025285  1
  F  F17  1  0.28281465  0.14002239  0.72025285  1
  F  F18  1  0.78281465  0.35997761  0.27974715  1
  F  F19  1  0.21718535  0.64002239  0.27974715  1
  F  F20  1  0.81530876  0.97367800  0.06915257  1
  F  F21  1  0.18469124  0.02632200  0.06915257  1
  F  F22  1  0.68469124  0.47367800  0.93084743  1
  F  F23  1  0.31530876  0.52632200  0.93084743  1
  F  F24  1  0.18469124  0.02632200  0.93084743  1
  F  F25  1  0.81530876  0.97367800  0.93084743  1
  F  F26  1  0.31530876  0.52632200  0.06915257  1
  F  F27  1  0.68469124  0.47367800  0.06915257  1
  Li  Li28  1  0.00000000  0.50000000  0.50000000  1
  Li  Li29  1  0.50000000  0.00000000  0.50000000  1
  Li  Li30  1  0.97544932  0.89997392  0.13697868  1
  Li  Li31  1  -0.97544932  -0.89997392  0.13697868  1
  Li  Li32  1  -0.47544932  1.39997392  -0.13697868  1
  Li  Li33  1  1.47544932  -0.39997392  -0.13697868  1
  Li  Li34  1  -0.97544932  -0.89997392  -0.13697868  1
  Li  Li35  1  0.97544932  0.89997392  -0.13697868  1
  Li  Li36  1  1.47544932  -0.39997392  0.13697868  1
  Li  Li37  1  -0.47544932  1.39997392  0.13697868  1
  Li  Li38  1  0.00000000  0.00000000  0.67161456  1
  Li  Li39  1  0.50000000  0.50000000  0.32838544  1
  Li  Li40  1  0.00000000  0.00000000  0.32838544  1
  Li  Li41  1  0.50000000  0.50000000  0.67161456  1
  Li  Li42  1  0.50301830  0.79907409  0.00000000  1
  Li  Li43  1  0.49698170  0.20092591  0.00000000  1
  Li  Li44  1  0.99698170  0.29907409  0.00000000  1
  Li  Li45  1  0.00301830  0.70092591  -0.00000000  1
  Li  Li46  1  0.00000000  0.50000000  0.74963022  1
  Li  Li47  1  0.50000000  0.00000000  0.25036978  1
  Li  Li48  1  0.00000000  0.50000000  0.25036978  1
  Li  Li49  1  0.50000000  0.00000000  0.74963022  1
  Li  Li50  1  0.24894375  0.43893401  0.50000000  1
  Li  Li51  1  0.75105625  0.56106599  0.50000000  1
  Li  Li52  1  0.25105625  0.93893401  0.50000000  1
  Li  Li53  1  0.74894375  0.06106599  0.50000000  1
  Li  Li54  1  0.00000000  0.00000000  0.00000000  1
  Li  Li55  1  0.50000000  0.50000000  0.00000000  1
