# generated using pymatgen
data_Li2Y2MoP3Se2
_symmetry_space_group_name_H-M   'P 1'
_cell_length_a   4.79570191
_cell_length_b   5.02171433
_cell_length_c   7.00480291
_cell_angle_alpha   95.10672788
_cell_angle_beta   101.12139166
_cell_angle_gamma   110.51169627
_symmetry_Int_Tables_number   1
_chemical_formula_structural   Li2Y2MoP3Se2
_chemical_formula_sum   'Li2 Y2 Mo1 P3 Se2'
_cell_volume   152.76464613
_cell_formula_units_Z   1
loop_
 _symmetry_equiv_pos_site_id
 _symmetry_equiv_pos_as_xyz
  1  'x, y, z'
loop_
 _atom_site_type_symbol
 _atom_site_label
 _atom_site_symmetry_multiplicity
 _atom_site_fract_x
 _atom_site_fract_y
 _atom_site_fract_z
 _atom_site_occupancy
  Se  Se0  1  0.00000000  0.00000000  0.00000000  1
  Se  Se1  1  0.50000000  0.50000000  0.50000000  1
  Y  Y2  1  0.25000000  0.25000000  0.25000000  1
  Y  Y3  1  0.75000000  0.25000000  0.00000000  1
  P  P4  1  0.25000000  0.75000000  0.50000000  1
  P  P5  1  0.53518021  0.61132133  0.27767282  1
  P  P6  1  0.04904300  0.47772029  0.34442148  1
  Mo  Mo7  1  0.92351669  0.83874118  0.52928302  1
  Li  Li8  1  0.12598115  0.31753589  0.30829518  1
  Li  Li9  1  0.55611985  0.74681410  0.35069302  1
