# generated using pymatgen
data_Li5Y2Al(P2Se)2
_symmetry_space_group_name_H-M   'P 1'
_cell_length_a   6.53758132
_cell_length_b   6.91454488
_cell_length_c   7.80460553
_cell_angle_alpha   91.94982489
_cell_angle_beta   94.24631324
_cell_angle_gamma   97.83167163
_symmetry_Int_Tables_number   1
_chemical_formula_structural   Li5Y2Al(P2Se)2
_chemical_formula_sum   'Li5 Y2 Al1 P4 Se2'
_cell_volume   348.20473237
_cell_formula_units_Z   1
loop_
 _symmetry_equiv_pos_site_id
 _symmetry_equiv_pos_as_xyz
  1  'x, y, z'
loop_
 _atom_site_type_symbol
 _atom_site_label
 _atom_site_symmetry_multiplicity
 _atom_site_fract_x
 _atom_site_fract_y
 _atom_site_fract_z
 _atom_site_occupancy
  Al  Al0  1  0.00000000  0.00000000  0.00000000  1
  Se  Se1  1  0.50000000  0.50000000  0.50000000  1
  Se  Se2  1  0.50000000  0.50000000  0.00000000  1
  P  P3  1  0.50000000  0.00000000  0.50000000  1
  P  P4  1  0.00000000  0.50000000  0.50000000  1
  P  P5  1  0.47108321  0.29176065  0.04773907  1
  P  P6  1  0.13056339  0.00788649  0.42771298  1
  Li  Li7  1  0.50543307  0.91393142  0.62978859  1
  Li  Li8  1  0.10082728  0.94800746  0.81667614  1
  Li  Li9  1  0.48044225  0.89956169  0.83281717  1
  Li  Li10  1  0.77072286  0.75301828  0.97170640  1
  Li  Li11  1  0.33414222  0.53097238  0.08289238  1
  Y  Y12  1  0.10990985  0.93245839  0.39849239  1
  Y  Y13  1  0.29817185  0.37697057  0.89538006  1
