# generated using pymatgen
data_LiPPbF2
_symmetry_space_group_name_H-M   'P 1'
_cell_length_a   8.13568239
_cell_length_b   7.18935127
_cell_length_c   8.34005295
_cell_angle_alpha   90.93589765
_cell_angle_beta   92.03819050
_cell_angle_gamma   93.75912888
_symmetry_Int_Tables_number   1
_chemical_formula_structural   LiPPbF2
_chemical_formula_sum   'Li2 P2 Pb2 F4'
_cell_volume   486.36931185
_cell_formula_units_Z   2
loop_
 _symmetry_equiv_pos_site_id
 _symmetry_equiv_pos_as_xyz
  1  'x, y, z'
loop_
 _atom_site_type_symbol
 _atom_site_label
 _atom_site_symmetry_multiplicity
 _atom_site_fract_x
 _atom_site_fract_y
 _atom_site_fract_z
 _atom_site_occupancy
  Pb  Pb0  1  0.12500000  0.00000000  0.25000000  1
  Pb  Pb1  1  0.00000000  0.00000000  0.00000000  1
  F  F2  1  0.37500000  0.00000000  0.25000000  1
  F  F3  1  0.25000000  0.25000000  0.25000000  1
  F  F4  1  0.00000000  0.25000000  0.12500000  1
  F  F5  1  0.54348748  0.65568142  0.94986199  1
  P  P6  1  0.17265588  0.57569736  0.17565529  1
  P  P7  1  0.24871313  0.40667359  0.42944053  1
  Li  Li8  1  0.05223829  0.97997158  0.23427376  1
  Li  Li9  1  0.95385766  0.94103342  0.40818842  1
