# generated using pymatgen
data_Li2Y2P3Se2
_symmetry_space_group_name_H-M   'P 1'
_cell_length_a   4.78939455
_cell_length_b   5.07405125
_cell_length_c   6.94399504
_cell_angle_alpha   95.08940047
_cell_angle_beta   100.64592153
_cell_angle_gamma   108.82393363
_symmetry_Int_Tables_number   1
_chemical_formula_structural   Li2Y2P3Se2
_chemical_formula_sum   'Li2 Y2 P3 Se2'
_cell_volume   154.96730207
_cell_formula_units_Z   1
loop_
 _symmetry_equiv_pos_site_id
 _symmetry_equiv_pos_as_xyz
  1  'x, y, z'
loop_
 _atom_site_type_symbol
 _atom_site_label
 _atom_site_symmetry_multiplicity
 _atom_site_fract_x
 _atom_site_fract_y
 _atom_site_fract_z
 _atom_site_occupancy
  Se  Se0  1  0.12500000  0.12500000  0.12500000  1
  Se  Se1  1  0.50000000  0.50000000  0.50000000  1
  P  P2  1  0.25000000  0.25000000  0.25000000  1
  P  P3  1  0.75000000  0.75000000  0.75000000  1
  P  P4  1  0.80793690  0.21331229  0.26314448  1
  Li  Li5  1  0.65156933  0.44463270  0.85390174  1
  Li  Li6  1  0.36211948  0.16510631  0.04723650  1
  Y  Y7  1  0.68437938  0.75289056  0.13510195  1
  Y  Y8  1  0.01997165  0.36166499  0.28522064  1
