# generated using pymatgen
data_Li4TeF2
_symmetry_space_group_name_H-M   'P 1'
_cell_length_a   14.10007705
_cell_length_b   14.10007705
_cell_length_c   15.62116619
_cell_angle_alpha   90.00000000
_cell_angle_beta   90.00000000
_cell_angle_gamma   120.00000000
_symmetry_Int_Tables_number   1
_chemical_formula_structural   Li4TeF2
_chemical_formula_sum   'Li96 Te24 F48'
_cell_volume   2689.59603724
_cell_formula_units_Z   24
loop_
 _symmetry_equiv_pos_site_id
 _symmetry_equiv_pos_as_xyz
  1  'x, y, z'
loop_
 _atom_site_type_symbol
 _atom_site_label
 _atom_site_symmetry_multiplicity
 _atom_site_fract_x
 _atom_site_fract_y
 _atom_site_fract_z
 _atom_site_occupancy
  F  F0  1  0.65687947  0.40736055  0.54652185  1
  F  F1  1  -0.40736055  0.24951892  0.54652185  1
  F  F2  1  -0.24951892  -0.65687947  0.54652185  1
  F  F3  1  0.40736055  0.65687947  -0.04652185  1
  F  F4  1  0.24951892  -0.40736055  -0.04652185  1
  F  F5  1  -0.65687947  -0.24951892  -0.04652185  1
  F  F6  1  -0.65687947  -0.40736055  -0.54652185  1
  F  F7  1  0.40736055  -0.24951892  -0.54652185  1
  F  F8  1  0.24951892  0.65687947  -0.54652185  1
  F  F9  1  -0.40736055  -0.65687947  1.04652185  1
  F  F10  1  -0.24951892  0.40736055  1.04652185  1
  F  F11  1  0.65687947  0.24951892  1.04652185  1
  F  F12  1  1.32354614  0.74069389  0.87985519  1
  F  F13  1  0.25930611  0.58285225  0.87985519  1
  F  F14  1  0.41714775  -0.32354614  0.87985519  1
  F  F15  1  1.07402722  0.99021281  0.28681148  1
  F  F16  1  0.91618559  -0.07402722  0.28681148  1
  F  F17  1  0.00978719  0.08381441  0.28681148  1
  F  F18  1  0.00978719  -0.07402722  -0.21318852  1
  F  F19  1  1.07402722  0.08381441  -0.21318852  1
  F  F20  1  0.91618559  0.99021281  -0.21318852  1
  F  F21  1  0.25930611  -0.32354614  1.37985519  1
  F  F22  1  0.41714775  0.74069389  1.37985519  1
  F  F23  1  1.32354614  0.58285225  1.37985519  1
  F  F24  1  0.99021281  1.07402722  1.21318852  1
  F  F25  1  -0.07402722  0.91618559  1.21318852  1
  F  F26  1  0.08381441  0.00978719  1.21318852  1
  F  F27  1  0.74069389  1.32354614  0.62014481  1
  F  F28  1  0.58285225  0.25930611  0.62014481  1
  F  F29  1  -0.32354614  0.41714775  0.62014481  1
  F  F30  1  -0.32354614  0.25930611  0.12014481  1
  F  F31  1  0.74069389  0.41714775  0.12014481  1
  F  F32  1  0.58285225  1.32354614  0.12014481  1
  F  F33  1  -0.07402722  0.00978719  1.71318852  1
  F  F34  1  0.08381441  1.07402722  1.71318852  1
  F  F35  1  0.99021281  0.91618559  1.71318852  1
  F  F36  1  0.00000000  0.00000000  0.56959133  1
  F  F37  1  0.00000000  0.00000000  0.93040867  1
  F  F38  1  0.00000000  0.00000000  0.43040867  1
  F  F39  1  0.00000000  0.00000000  0.06959133  1
  F  F40  1  0.66666667  0.33333333  0.90292466  1
  F  F41  1  0.66666667  0.33333333  0.26374201  1
  F  F42  1  0.66666667  0.33333333  0.76374201  1
  F  F43  1  0.66666667  0.33333333  0.40292466  1
  F  F44  1  0.33333333  0.66666667  0.23625799  1
  F  F45  1  0.33333333  0.66666667  0.59707534  1
  F  F46  1  0.33333333  0.66666667  0.09707534  1
  F  F47  1  0.33333333  0.66666667  0.73625799  1
  Li  Li48  1  0.10588401  0.37489809  0.68351931  1
  Li  Li49  1  0.62510191  0.73098592  0.68351931  1
  Li  Li50  1  0.26901408  0.89411599  0.68351931  1
  Li  Li51  1  0.37489809  0.10588401  0.81648069  1
  Li  Li52  1  0.73098592  0.62510191  0.81648069  1
  Li  Li53  1  0.89411599  0.26901408  0.81648069  1
  Li  Li54  1  0.89411599  0.62510191  0.31648069  1
  Li  Li55  1  0.37489809  0.26901408  0.31648069  1
  Li  Li56  1  0.73098592  0.10588401  0.31648069  1
  Li  Li57  1  0.62510191  0.89411599  0.18351931  1
  Li  Li58  1  0.26901408  0.37489809  0.18351931  1
  Li  Li59  1  0.10588401  0.73098592  0.18351931  1
  Li  Li60  1  0.77255068  0.70823142  0.01685264  1
  Li  Li61  1  0.29176858  0.06431926  0.01685264  1
  Li  Li62  1  0.93568074  0.22744932  0.01685264  1
  Li  Li63  1  0.04156475  0.43921734  0.14981403  1
  Li  Li64  1  0.39765259  0.95843525  0.14981403  1
  Li  Li65  1  0.56078266  0.60234741  0.14981403  1
  Li  Li66  1  0.56078266  0.95843525  0.64981403  1
  Li  Li67  1  0.04156475  0.60234741  0.64981403  1
  Li  Li68  1  0.39765259  0.43921734  0.64981403  1
  Li  Li69  1  0.29176858  0.22744932  0.51685264  1
  Li  Li70  1  0.93568074  0.70823142  0.51685264  1
  Li  Li71  1  0.77255068  0.06431926  0.51685264  1
  Li  Li72  1  0.43921734  0.04156475  0.35018597  1
  Li  Li73  1  0.95843525  0.39765259  0.35018597  1
  Li  Li74  1  0.60234741  0.56078266  0.35018597  1
  Li  Li75  1  0.70823142  0.77255068  0.48314736  1
  Li  Li76  1  0.06431926  0.29176858  0.48314736  1
  Li  Li77  1  0.22744932  0.93568074  0.48314736  1
  Li  Li78  1  0.22744932  0.29176858  0.98314736  1
  Li  Li79  1  0.70823142  0.93568074  0.98314736  1
  Li  Li80  1  0.06431926  0.77255068  0.98314736  1
  Li  Li81  1  0.95843525  0.56078266  0.85018597  1
  Li  Li82  1  0.60234741  0.04156475  0.85018597  1
  Li  Li83  1  0.43921734  0.39765259  0.85018597  1
  Li  Li84  1  0.73594628  0.34064156  0.19546801  1
  Li  Li85  1  0.65935844  0.39530472  0.19546801  1
  Li  Li86  1  0.60469528  0.26405372  0.19546801  1
  Li  Li87  1  0.34064156  0.73594628  0.30453199  1
  Li  Li88  1  0.39530472  0.65935844  0.30453199  1
  Li  Li89  1  0.26405372  0.60469528  0.30453199  1
  Li  Li90  1  0.26405372  0.65935844  0.80453199  1
  Li  Li91  1  0.34064156  0.60469528  0.80453199  1
  Li  Li92  1  0.39530472  0.73594628  0.80453199  1
  Li  Li93  1  0.65935844  0.26405372  0.69546801  1
  Li  Li94  1  0.60469528  0.34064156  0.69546801  1
  Li  Li95  1  0.73594628  0.39530472  0.69546801  1
  Li  Li96  1  0.40261295  0.67397490  0.52880135  1
  Li  Li97  1  0.32602510  0.72863805  0.52880135  1
  Li  Li98  1  0.27136195  0.59738705  0.52880135  1
  Li  Li99  1  0.00730823  0.06927962  0.63786532  1
  Li  Li100  1  0.06197139  0.99269177  0.63786532  1
  Li  Li101  1  0.93072038  0.93802861  0.63786532  1
  Li  Li102  1  0.93072038  0.99269177  0.13786532  1
  Li  Li103  1  0.00730823  0.93802861  0.13786532  1
  Li  Li104  1  0.06197139  0.06927962  0.13786532  1
  Li  Li105  1  0.32602510  0.59738705  0.02880135  1
  Li  Li106  1  0.27136195  0.67397490  0.02880135  1
  Li  Li107  1  0.40261295  0.72863805  0.02880135  1
  Li  Li108  1  0.06927962  0.00730823  0.86213468  1
  Li  Li109  1  0.99269177  0.06197139  0.86213468  1
  Li  Li110  1  0.93802861  0.93072038  0.86213468  1
  Li  Li111  1  0.67397490  0.40261295  0.97119865  1
  Li  Li112  1  0.72863805  0.32602510  0.97119865  1
  Li  Li113  1  0.59738705  0.27136195  0.97119865  1
  Li  Li114  1  0.59738705  0.32602510  0.47119865  1
  Li  Li115  1  0.67397490  0.27136195  0.47119865  1
  Li  Li116  1  0.72863805  0.40261295  0.47119865  1
  Li  Li117  1  0.99269177  0.93072038  0.36213468  1
  Li  Li118  1  0.93802861  0.00730823  0.36213468  1
  Li  Li119  1  0.06927962  0.06197139  0.36213468  1
  Li  Li120  1  0.50000000  0.00000000  0.00000000  1
  Li  Li121  1  0.00000000  0.50000000  0.00000000  1
  Li  Li122  1  0.50000000  0.50000000  0.00000000  1
  Li  Li123  1  0.00000000  0.50000000  0.50000000  1
  Li  Li124  1  0.50000000  0.00000000  0.50000000  1
  Li  Li125  1  0.50000000  0.50000000  0.50000000  1
  Li  Li126  1  0.16666667  0.33333333  0.33333333  1
  Li  Li127  1  0.66666667  0.83333333  0.33333333  1
  Li  Li128  1  0.16666667  0.83333333  0.33333333  1
  Li  Li129  1  0.66666667  0.83333333  0.83333333  1
  Li  Li130  1  0.16666667  0.33333333  0.83333333  1
  Li  Li131  1  0.16666667  0.83333333  0.83333333  1
  Li  Li132  1  0.83333333  0.66666667  0.66666667  1
  Li  Li133  1  0.33333333  0.16666667  0.66666667  1
  Li  Li134  1  0.83333333  0.16666667  0.66666667  1
  Li  Li135  1  0.33333333  0.16666667  0.16666667  1
  Li  Li136  1  0.83333333  0.66666667  0.16666667  1
  Li  Li137  1  0.83333333  0.16666667  0.16666667  1
  Li  Li138  1  0.00000000  0.00000000  0.00000000  1
  Li  Li139  1  0.00000000  0.00000000  0.50000000  1
  Li  Li140  1  0.66666667  0.33333333  0.33333333  1
  Li  Li141  1  0.66666667  0.33333333  0.83333333  1
  Li  Li142  1  0.33333333  0.66666667  0.66666667  1
  Li  Li143  1  0.33333333  0.66666667  0.16666667  1
  Te  Te144  1  0.00000000  0.00000000  0.25000000  1
  Te  Te145  1  0.00000000  0.00000000  0.75000000  1
  Te  Te146  1  0.66666667  0.33333333  0.58333333  1
  Te  Te147  1  0.66666667  0.33333333  0.08333333  1
  Te  Te148  1  0.33333333  0.66666667  0.91666667  1
  Te  Te149  1  0.33333333  0.66666667  0.41666667  1
  Te  Te150  1  0.44567435  0.00000000  0.25000000  1
  Te  Te151  1  0.00000000  0.44567435  0.25000000  1
  Te  Te152  1  0.55432565  0.55432565  0.25000000  1
  Te  Te153  1  0.55432565  0.00000000  0.75000000  1
  Te  Te154  1  0.00000000  0.55432565  0.75000000  1
  Te  Te155  1  0.44567435  0.44567435  0.75000000  1
  Te  Te156  1  0.11234102  0.33333333  0.58333333  1
  Te  Te157  1  0.66666667  0.77900769  0.58333333  1
  Te  Te158  1  0.22099231  0.88765898  0.58333333  1
  Te  Te159  1  0.22099231  0.33333333  0.08333333  1
  Te  Te160  1  0.66666667  0.88765898  0.08333333  1
  Te  Te161  1  0.11234102  0.77900769  0.08333333  1
  Te  Te162  1  0.77900769  0.66666667  0.91666667  1
  Te  Te163  1  0.33333333  0.11234102  0.91666667  1
  Te  Te164  1  0.88765898  0.22099231  0.91666667  1
  Te  Te165  1  0.88765898  0.66666667  0.41666667  1
  Te  Te166  1  0.33333333  0.22099231  0.41666667  1
  Te  Te167  1  0.77900769  0.11234102  0.41666667  1
