# generated using pymatgen
data_LiF
_symmetry_space_group_name_H-M   'P 1'
_cell_length_a   8.79589199
_cell_length_b   6.96276817
_cell_length_c   7.82252725
_cell_angle_alpha   90.00000000
_cell_angle_beta   90.00000000
_cell_angle_gamma   90.00000000
_symmetry_Int_Tables_number   1
_chemical_formula_structural   LiF
_chemical_formula_sum   'Li30 F30'
_cell_volume   479.08095589
_cell_formula_units_Z   30
loop_
 _symmetry_equiv_pos_site_id
 _symmetry_equiv_pos_as_xyz
  1  'x, y, z'
loop_
 _atom_site_type_symbol
 _atom_site_label
 _atom_site_symmetry_multiplicity
 _atom_site_fract_x
 _atom_site_fract_y
 _atom_site_fract_z
 _atom_site_occupancy
  F  F0  1  0.00000000  0.50000000  0.50000000  1
  F  F1  1  0.50000000  0.00000000  0.50000000  1
  F  F2  1  0.93971953  0.71664815  0.21377602  1
  F  F3  1  0.06028047  0.28335185  0.21377602  1
  F  F4  1  0.56028047  0.21664815  0.78622398  1
  F  F5  1  0.43971953  0.78335185  0.78622398  1
  F  F6  1  0.06028047  0.28335185  0.78622398  1
  F  F7  1  0.93971953  0.71664815  0.78622398  1
  F  F8  1  0.43971953  0.78335185  0.21377602  1
  F  F9  1  0.56028047  0.21664815  0.21377602  1
  F  F10  1  0.49995161  0.26481823  0.43123841  1
  F  F11  1  0.50004839  0.73518177  0.43123841  1
  F  F12  1  0.00004839  0.76481823  0.56876159  1
  F  F13  1  0.99995161  0.23518177  0.56876159  1
  F  F14  1  0.50004839  0.73518177  0.56876159  1
  F  F15  1  0.49995161  0.26481823  0.56876159  1
  F  F16  1  0.99995161  0.23518177  0.43123841  1
  F  F17  1  0.00004839  0.76481823  0.43123841  1
  F  F18  1  0.68956448  0.06496369  0.31083646  1
  F  F19  1  0.31043552  0.93503631  0.31083646  1
  F  F20  1  0.81043552  0.56496369  0.68916354  1
  F  F21  1  0.18956448  0.43503631  0.68916354  1
  F  F22  1  0.31043552  0.93503631  0.68916354  1
  F  F23  1  0.68956448  0.06496369  0.68916354  1
  F  F24  1  0.18956448  0.43503631  0.31083646  1
  F  F25  1  0.81043552  0.56496369  0.31083646  1
  F  F26  1  0.93224858  0.44656949  -0.00000000  1
  F  F27  1  0.06775142  0.55343051  -0.00000000  1
  F  F28  1  0.56775142  0.94656949  -0.00000000  1
  F  F29  1  0.43224858  0.05343051  -0.00000000  1
  Li  Li30  1  0.00000000  0.50000000  0.13034798  1
  Li  Li31  1  0.50000000  0.00000000  0.86965202  1
  Li  Li32  1  0.00000000  0.50000000  0.86965202  1
  Li  Li33  1  0.50000000  0.00000000  0.13034798  1
  Li  Li34  1  0.00000000  0.50000000  0.62290617  1
  Li  Li35  1  0.50000000  0.00000000  0.37709383  1
  Li  Li36  1  0.00000000  0.50000000  0.37709383  1
  Li  Li37  1  0.50000000  0.00000000  0.62290617  1
  Li  Li38  1  0.57815162  0.75007399  0.74149902  1
  Li  Li39  1  -0.57815162  -0.75007399  0.74149902  1
  Li  Li40  1  -0.07815162  1.25007399  -0.74149902  1
  Li  Li41  1  1.07815162  -0.25007399  -0.74149902  1
  Li  Li42  1  -0.57815162  -0.75007399  -0.74149902  1
  Li  Li43  1  0.57815162  0.75007399  -0.74149902  1
  Li  Li44  1  1.07815162  -0.25007399  0.74149902  1
  Li  Li45  1  -0.07815162  1.25007399  0.74149902  1
  Li  Li46  1  0.32256315  0.10381352  0.84415962  1
  Li  Li47  1  0.67743685  0.89618648  0.84415962  1
  Li  Li48  1  0.17743685  0.60381352  0.15584038  1
  Li  Li49  1  0.82256315  0.39618648  0.15584038  1
  Li  Li50  1  0.67743685  0.89618648  0.15584038  1
  Li  Li51  1  0.32256315  0.10381352  0.15584038  1
  Li  Li52  1  0.82256315  0.39618648  0.84415962  1
  Li  Li53  1  0.17743685  0.60381352  0.84415962  1
  Li  Li54  1  0.55004109  0.38366607  0.50000000  1
  Li  Li55  1  0.44995891  0.61633393  0.50000000  1
  Li  Li56  1  0.94995891  0.88366607  0.50000000  1
  Li  Li57  1  0.05004109  0.11633393  0.50000000  1
  Li  Li58  1  0.00000000  0.00000000  0.00000000  1
  Li  Li59  1  0.50000000  0.50000000  0.00000000  1
