# generated using pymatgen
data_Li2Y2MoP3
_symmetry_space_group_name_H-M   'P 1'
_cell_length_a   5.62843520
_cell_length_b   5.87082928
_cell_length_c   7.44349970
_cell_angle_alpha   93.71189673
_cell_angle_beta   98.08373939
_cell_angle_gamma   104.90921391
_symmetry_Int_Tables_number   1
_chemical_formula_structural   Li2Y2MoP3
_chemical_formula_sum   'Li2 Y2 Mo1 P3'
_cell_volume   234.00508254
_cell_formula_units_Z   1
loop_
 _symmetry_equiv_pos_site_id
 _symmetry_equiv_pos_as_xyz
  1  'x, y, z'
loop_
 _atom_site_type_symbol
 _atom_site_label
 _atom_site_symmetry_multiplicity
 _atom_site_fract_x
 _atom_site_fract_y
 _atom_site_fract_z
 _atom_site_occupancy
  P  P0  1  0.00000000  0.00000000  0.00000000  1
  P  P1  1  0.33300000  0.66700000  0.25000000  1
  P  P2  1  0.66700000  0.33300000  0.50000000  1
  Mo  Mo3  1  0.00000000  0.00000000  0.75000000  1
  Li  Li4  1  0.85667355  0.85216816  0.36088022  1
  Li  Li5  1  0.68530825  0.12290285  0.57507161  1
  Y  Y6  1  0.36663154  0.91645277  0.77757340  1
  Y  Y7  1  0.77008746  0.77125917  0.95749750  1
