# generated using pymatgen
data_LiF
_symmetry_space_group_name_H-M   'P 1'
_cell_length_a   14.13574947
_cell_length_b   14.13574947
_cell_length_c   13.06983186
_cell_angle_alpha   90.00000000
_cell_angle_beta   90.00000000
_cell_angle_gamma   120.00000000
_symmetry_Int_Tables_number   1
_chemical_formula_structural   LiF
_chemical_formula_sum   'Li66 F66'
_cell_volume   2261.71725663
_cell_formula_units_Z   66
loop_
 _symmetry_equiv_pos_site_id
 _symmetry_equiv_pos_as_xyz
  1  'x, y, z'
loop_
 _atom_site_type_symbol
 _atom_site_label
 _atom_site_symmetry_multiplicity
 _atom_site_fract_x
 _atom_site_fract_y
 _atom_site_fract_z
 _atom_site_occupancy
  F  F0  1  0.62116787  0.22351614  0.21290245  1
  F  F1  1  0.77648386  0.39765173  0.21290245  1
  F  F2  1  0.60234827  0.37883213  0.21290245  1
  F  F3  1  0.22351614  0.62116787  0.28709755  1
  F  F4  1  0.39765173  0.77648386  0.28709755  1
  F  F5  1  0.37883213  0.60234827  0.28709755  1
  F  F6  1  0.37883213  0.77648386  0.78709755  1
  F  F7  1  0.22351614  0.60234827  0.78709755  1
  F  F8  1  0.39765173  0.62116787  0.78709755  1
  F  F9  1  0.77648386  0.37883213  0.71290245  1
  F  F10  1  0.60234827  0.22351614  0.71290245  1
  F  F11  1  0.62116787  0.39765173  0.71290245  1
  F  F12  1  0.28783454  0.55684948  0.54623578  1
  F  F13  1  0.44315052  0.73098506  0.54623578  1
  F  F14  1  0.26901494  0.71216546  0.54623578  1
  F  F15  1  0.89018281  0.95450120  0.62043088  1
  F  F16  1  0.06431839  0.10981719  0.62043088  1
  F  F17  1  0.04549880  0.93568161  0.62043088  1
  F  F18  1  0.04549880  0.10981719  0.12043088  1
  F  F19  1  0.89018281  0.93568161  0.12043088  1
  F  F20  1  0.06431839  0.95450120  0.12043088  1
  F  F21  1  0.44315052  0.71216546  0.04623578  1
  F  F22  1  0.26901494  0.55684948  0.04623578  1
  F  F23  1  0.28783454  0.73098506  0.04623578  1
  F  F24  1  0.95450120  0.89018281  0.87956912  1
  F  F25  1  0.10981719  0.06431839  0.87956912  1
  F  F26  1  0.93568161  0.04549880  0.87956912  1
  F  F27  1  0.55684948  0.28783454  0.95376422  1
  F  F28  1  0.73098506  0.44315052  0.95376422  1
  F  F29  1  0.71216546  0.26901494  0.95376422  1
  F  F30  1  0.71216546  0.44315052  0.45376422  1
  F  F31  1  0.55684948  0.26901494  0.45376422  1
  F  F32  1  0.73098506  0.28783454  0.45376422  1
  F  F33  1  0.10981719  0.04549880  0.37956912  1
  F  F34  1  0.93568161  0.89018281  0.37956912  1
  F  F35  1  0.95450120  0.06431839  0.37956912  1
  F  F36  1  0.25893479  -0.00000000  0.25000000  1
  F  F37  1  0.00000000  0.25893479  0.25000000  1
  F  F38  1  0.74106521  0.74106521  0.25000000  1
  F  F39  1  0.74106521  0.00000000  0.75000000  1
  F  F40  1  0.00000000  0.74106521  0.75000000  1
  F  F41  1  0.25893479  0.25893479  0.75000000  1
  F  F42  1  0.92560145  0.33333333  0.58333333  1
  F  F43  1  0.66666667  0.59226812  0.58333333  1
  F  F44  1  0.40773188  0.07439855  0.58333333  1
  F  F45  1  0.40773188  0.33333333  0.08333333  1
  F  F46  1  0.66666667  0.07439855  0.08333333  1
  F  F47  1  0.92560145  0.59226812  0.08333333  1
  F  F48  1  0.59226812  0.66666667  0.91666667  1
  F  F49  1  0.33333333  0.92560145  0.91666667  1
  F  F50  1  0.07439855  0.40773188  0.91666667  1
  F  F51  1  0.07439855  0.66666667  0.41666667  1
  F  F52  1  0.33333333  0.40773188  0.41666667  1
  F  F53  1  0.59226812  0.92560145  0.41666667  1
  F  F54  1  0.00000000  0.00000000  0.33223208  1
  F  F55  1  0.00000000  0.00000000  0.16776792  1
  F  F56  1  0.00000000  0.00000000  0.66776792  1
  F  F57  1  0.00000000  0.00000000  0.83223208  1
  F  F58  1  0.66666667  0.33333333  0.66556541  1
  F  F59  1  0.66666667  0.33333333  0.50110125  1
  F  F60  1  0.66666667  0.33333333  0.00110125  1
  F  F61  1  0.66666667  0.33333333  0.16556541  1
  F  F62  1  0.33333333  0.66666667  0.99889875  1
  F  F63  1  0.33333333  0.66666667  0.83443459  1
  F  F64  1  0.33333333  0.66666667  0.33443459  1
  F  F65  1  0.33333333  0.66666667  0.49889875  1
  Li  Li66  1  0.00000000  0.00000000  0.25000000  1
  Li  Li67  1  0.00000000  0.00000000  0.75000000  1
  Li  Li68  1  0.66666667  0.33333333  0.58333333  1
  Li  Li69  1  0.66666667  0.33333333  0.08333333  1
  Li  Li70  1  0.33333333  0.66666667  0.91666667  1
  Li  Li71  1  0.33333333  0.66666667  0.41666667  1
  Li  Li72  1  0.03720363  0.40659138  0.61650752  1
  Li  Li73  1  -0.40659138  -0.36938774  0.61650752  1
  Li  Li74  1  0.36938774  -0.03720363  0.61650752  1
  Li  Li75  1  0.40659138  0.03720363  -0.11650752  1
  Li  Li76  1  -0.36938774  -0.40659138  -0.11650752  1
  Li  Li77  1  -0.03720363  0.36938774  -0.11650752  1
  Li  Li78  1  -0.03720363  -0.40659138  -0.61650752  1
  Li  Li79  1  0.40659138  0.36938774  -0.61650752  1
  Li  Li80  1  -0.36938774  0.03720363  -0.61650752  1
  Li  Li81  1  -0.40659138  -0.03720363  1.11650752  1
  Li  Li82  1  0.36938774  0.40659138  1.11650752  1
  Li  Li83  1  0.03720363  -0.36938774  1.11650752  1
  Li  Li84  1  0.70387030  0.73992471  0.94984085  1
  Li  Li85  1  0.26007529  -0.03605441  0.94984085  1
  Li  Li86  1  1.03605441  0.29612970  0.94984085  1
  Li  Li87  1  1.07325804  0.37053696  0.21682581  1
  Li  Li88  1  0.29727892  -0.07325804  0.21682581  1
  Li  Li89  1  0.62946304  0.70272108  0.21682581  1
  Li  Li90  1  0.62946304  -0.07325804  -0.28317419  1
  Li  Li91  1  1.07325804  0.70272108  -0.28317419  1
  Li  Li92  1  0.29727892  0.37053696  -0.28317419  1
  Li  Li93  1  0.26007529  0.29612970  1.44984085  1
  Li  Li94  1  1.03605441  0.73992471  1.44984085  1
  Li  Li95  1  0.70387030  -0.03605441  1.44984085  1
  Li  Li96  1  0.37053696  1.07325804  1.28317419  1
  Li  Li97  1  -0.07325804  0.29727892  1.28317419  1
  Li  Li98  1  0.70272108  0.62946304  1.28317419  1
  Li  Li99  1  0.73992471  0.70387030  0.55015915  1
  Li  Li100  1  -0.03605441  0.26007529  0.55015915  1
  Li  Li101  1  0.29612970  1.03605441  0.55015915  1
  Li  Li102  1  0.29612970  0.26007529  0.05015915  1
  Li  Li103  1  0.73992471  1.03605441  0.05015915  1
  Li  Li104  1  -0.03605441  0.70387030  0.05015915  1
  Li  Li105  1  -0.07325804  0.62946304  1.78317419  1
  Li  Li106  1  0.70272108  1.07325804  1.78317419  1
  Li  Li107  1  0.37053696  0.29727892  1.78317419  1
  Li  Li108  1  0.50000000  -0.00000000  0.00000000  1
  Li  Li109  1  0.00000000  0.50000000  0.00000000  1
  Li  Li110  1  0.50000000  0.50000000  0.00000000  1
  Li  Li111  1  0.00000000  0.50000000  0.50000000  1
  Li  Li112  1  0.50000000  -0.00000000  0.50000000  1
  Li  Li113  1  0.50000000  0.50000000  0.50000000  1
  Li  Li114  1  0.16666667  0.33333333  0.33333333  1
  Li  Li115  1  0.66666667  0.83333333  0.33333333  1
  Li  Li116  1  0.16666667  0.83333333  0.33333333  1
  Li  Li117  1  0.66666667  0.83333333  0.83333333  1
  Li  Li118  1  0.16666667  0.33333333  0.83333333  1
  Li  Li119  1  0.16666667  0.83333333  0.83333333  1
  Li  Li120  1  0.83333333  0.66666667  0.66666667  1
  Li  Li121  1  0.33333333  0.16666667  0.66666667  1
  Li  Li122  1  0.83333333  0.16666667  0.66666667  1
  Li  Li123  1  0.33333333  0.16666667  0.16666667  1
  Li  Li124  1  0.83333333  0.66666667  0.16666667  1
  Li  Li125  1  0.83333333  0.16666667  0.16666667  1
  Li  Li126  1  0.00000000  0.00000000  0.00000000  1
  Li  Li127  1  0.00000000  0.00000000  0.50000000  1
  Li  Li128  1  0.66666667  0.33333333  0.33333333  1
  Li  Li129  1  0.66666667  0.33333333  0.83333333  1
  Li  Li130  1  0.33333333  0.66666667  0.66666667  1
  Li  Li131  1  0.33333333  0.66666667  0.16666667  1
