# generated using pymatgen
data_Li3TiAlO
_symmetry_space_group_name_H-M   'P 1'
_cell_length_a   3.18855493
_cell_length_b   2.78503904
_cell_length_c   6.68578907
_cell_angle_alpha   110.49361543
_cell_angle_beta   102.85110825
_cell_angle_gamma   98.78806986
_symmetry_Int_Tables_number   1
_chemical_formula_structural   Li3TiAlO
_chemical_formula_sum   'Li3 Ti1 Al1 O1'
_cell_volume   52.46310901
_cell_formula_units_Z   1
loop_
 _symmetry_equiv_pos_site_id
 _symmetry_equiv_pos_as_xyz
  1  'x, y, z'
loop_
 _atom_site_type_symbol
 _atom_site_label
 _atom_site_symmetry_multiplicity
 _atom_site_fract_x
 _atom_site_fract_y
 _atom_site_fract_z
 _atom_site_occupancy
  Al  Al0  1  0.00000000  0.00000000  0.00000000  1
  Li  Li1  1  0.50000000  0.50000000  0.50000000  1
  Li  Li2  1  0.25000000  0.25000000  0.25000000  1
  Li  Li3  1  0.75000000  0.25000000  0.00000000  1
  O  O4  1  0.25000000  0.75000000  0.50000000  1
  Ti  Ti5  1  0.69846490  0.28277678  0.12905406  1
