# generated using pymatgen
data_LiY2P3
_symmetry_space_group_name_H-M   'P 1'
_cell_length_a   4.19505419
_cell_length_b   4.41467480
_cell_length_c   6.87199662
_cell_angle_alpha   96.24677068
_cell_angle_beta   103.60416786
_cell_angle_gamma   115.09079510
_symmetry_Int_Tables_number   1
_chemical_formula_structural   LiY2P3
_chemical_formula_sum   'Li1 Y2 P3'
_cell_volume   108.83514123
_cell_formula_units_Z   1
loop_
 _symmetry_equiv_pos_site_id
 _symmetry_equiv_pos_as_xyz
  1  'x, y, z'
loop_
 _atom_site_type_symbol
 _atom_site_label
 _atom_site_symmetry_multiplicity
 _atom_site_fract_x
 _atom_site_fract_y
 _atom_site_fract_z
 _atom_site_occupancy
  Y  Y0  1  0.00000000  0.00000000  0.00000000  1
  Y  Y1  1  0.33300000  0.66700000  0.25000000  1
  P  P2  1  0.66700000  0.33300000  0.50000000  1
  P  P3  1  0.00000000  0.00000000  0.75000000  1
  P  P4  1  0.03556048  0.86844956  0.16004244  1
  Li  Li5  1  0.43477280  0.49940631  0.28971494  1
