# generated using pymatgen
data_Li2Sb2P2Se
_symmetry_space_group_name_H-M   'P 1'
_cell_length_a   4.92294738
_cell_length_b   5.04021088
_cell_length_c   6.19405548
_cell_angle_alpha   94.09212691
_cell_angle_beta   95.83728396
_cell_angle_gamma   101.61478995
_symmetry_Int_Tables_number   1
_chemical_formula_structural   Li2Sb2P2Se
_chemical_formula_sum   'Li2 Sb2 P2 Se1'
_cell_volume   149.09690781
_cell_formula_units_Z   1
loop_
 _symmetry_equiv_pos_site_id
 _symmetry_equiv_pos_as_xyz
  1  'x, y, z'
loop_
 _atom_site_type_symbol
 _atom_site_label
 _atom_site_symmetry_multiplicity
 _atom_site_fract_x
 _atom_site_fract_y
 _atom_site_fract_z
 _atom_site_occupancy
  Se  Se0  1  0.12500000  0.00000000  0.25000000  1
  P  P1  1  0.00000000  0.00000000  0.00000000  1
  P  P2  1  0.37500000  0.00000000  0.25000000  1
  Li  Li3  1  0.25000000  0.25000000  0.25000000  1
  Li  Li4  1  0.00000000  0.25000000  0.12500000  1
  Sb  Sb5  1  0.32680837  0.54610109  0.98596985  1
  Sb  Sb6  1  0.62715246  0.27267782  0.55532323  1
