# generated using pymatgen
data_Li2Cu3Sb2(AsP)2
_symmetry_space_group_name_H-M   'P 1'
_cell_length_a   4.51159396
_cell_length_b   4.68150759
_cell_length_c   6.71803169
_cell_angle_alpha   95.32628668
_cell_angle_beta   101.09525189
_cell_angle_gamma   109.78462217
_symmetry_Int_Tables_number   1
_chemical_formula_structural   Li2Cu3Sb2(AsP)2
_chemical_formula_sum   'Li2 Cu3 Sb2 As2 P2'
_cell_volume   129.08925224
_cell_formula_units_Z   1
loop_
 _symmetry_equiv_pos_site_id
 _symmetry_equiv_pos_as_xyz
  1  'x, y, z'
loop_
 _atom_site_type_symbol
 _atom_site_label
 _atom_site_symmetry_multiplicity
 _atom_site_fract_x
 _atom_site_fract_y
 _atom_site_fract_z
 _atom_site_occupancy
  P  P0  1  0.00000000  0.00000000  0.00000000  1
  P  P1  1  0.50000000  0.50000000  0.50000000  1
  Sb  Sb2  1  0.50000000  0.50000000  0.00000000  1
  Sb  Sb3  1  0.50000000  0.00000000  0.50000000  1
  As  As4  1  0.00000000  0.50000000  0.50000000  1
  As  As5  1  0.56462142  0.26672979  0.86637496  1
  Li  Li6  1  0.57793859  0.82845430  0.19103482  1
  Li  Li7  1  0.36555669  0.73653007  0.31579425  1
  Cu  Cu8  1  0.64127319  0.62637310  0.19710292  1
  Cu  Cu9  1  0.41320121  0.83864054  0.53399067  1
  Cu  Cu10  1  0.98026744  0.52718142  0.47151007  1
