# generated using pymatgen
data_LiF
_symmetry_space_group_name_H-M   'P 1'
_cell_length_a   9.25156778
_cell_length_b   15.59542009
_cell_length_c   8.72558540
_cell_angle_alpha   90.00000000
_cell_angle_beta   90.00000000
_cell_angle_gamma   90.00000000
_symmetry_Int_Tables_number   1
_chemical_formula_structural   LiF
_chemical_formula_sum   'Li56 F56'
_cell_volume   1258.94566230
_cell_formula_units_Z   56
loop_
 _symmetry_equiv_pos_site_id
 _symmetry_equiv_pos_as_xyz
  1  'x, y, z'
loop_
 _atom_site_type_symbol
 _atom_site_label
 _atom_site_symmetry_multiplicity
 _atom_site_fract_x
 _atom_site_fract_y
 _atom_site_fract_z
 _atom_site_occupancy
  F  F0  1  0.68551998  0.77262001  0.03321781  1
  F  F1  1  0.31448002  0.22737999  0.03321781  1
  F  F2  1  0.81448002  0.27262001  0.96678219  1
  F  F3  1  0.18551998  0.72737999  0.96678219  1
  F  F4  1  0.31448002  0.22737999  0.96678219  1
  F  F5  1  0.68551998  0.77262001  0.96678219  1
  F  F6  1  0.18551998  0.72737999  0.03321781  1
  F  F7  1  0.81448002  0.27262001  0.03321781  1
  F  F8  1  0.93056110  0.11477218  0.81909813  1
  F  F9  1  0.06943890  0.88522782  0.81909813  1
  F  F10  1  0.56943890  0.61477218  0.18090187  1
  F  F11  1  0.43056110  0.38522782  0.18090187  1
  F  F12  1  0.06943890  0.88522782  0.18090187  1
  F  F13  1  0.93056110  0.11477218  0.18090187  1
  F  F14  1  0.43056110  0.38522782  0.81909813  1
  F  F15  1  0.56943890  0.61477218  0.81909813  1
  F  F16  1  0.92440255  0.65465278  0.18007679  1
  F  F17  1  0.07559745  0.34534722  0.18007679  1
  F  F18  1  0.57559745  0.15465278  0.81992321  1
  F  F19  1  0.42440255  0.84534722  0.81992321  1
  F  F20  1  0.07559745  0.34534722  0.81992321  1
  F  F21  1  0.92440255  0.65465278  0.81992321  1
  F  F22  1  0.42440255  0.84534722  0.18007679  1
  F  F23  1  0.57559745  0.15465278  0.18007679  1
  F  F24  1  0.66699230  0.56796715  0.44611759  1
  F  F25  1  0.33300770  0.43203285  0.44611759  1
  F  F26  1  0.83300770  0.06796715  0.55388241  1
  F  F27  1  0.16699230  0.93203285  0.55388241  1
  F  F28  1  0.33300770  0.43203285  0.55388241  1
  F  F29  1  0.66699230  0.56796715  0.55388241  1
  F  F30  1  0.16699230  0.93203285  0.44611759  1
  F  F31  1  0.83300770  0.06796715  0.44611759  1
  F  F32  1  0.30359479  0.04978686  0.50000000  1
  F  F33  1  0.69640521  0.95021314  0.50000000  1
  F  F34  1  0.19640521  0.54978686  0.50000000  1
  F  F35  1  0.80359479  0.45021314  0.50000000  1
  F  F36  1  0.19142800  0.11319958  0.76663660  1
  F  F37  1  0.80857200  0.88680042  0.76663660  1
  F  F38  1  0.30857200  0.61319958  0.23336340  1
  F  F39  1  0.69142800  0.38680042  0.23336340  1
  F  F40  1  0.80857200  0.88680042  0.23336340  1
  F  F41  1  0.19142800  0.11319958  0.23336340  1
  F  F42  1  0.69142800  0.38680042  0.76663660  1
  F  F43  1  0.30857200  0.61319958  0.76663660  1
  F  F44  1  0.99701134  0.83719727  0.50000000  1
  F  F45  1  0.00298866  0.16280273  0.50000000  1
  F  F46  1  0.50298866  0.33719727  0.50000000  1
  F  F47  1  0.49701134  0.66280273  0.50000000  1
  F  F48  1  0.43052106  0.21338945  0.90832808  1
  F  F49  1  0.56947894  0.78661055  0.90832808  1
  F  F50  1  0.06947894  0.71338945  0.09167192  1
  F  F51  1  0.93052106  0.28661055  0.09167192  1
  F  F52  1  0.56947894  0.78661055  0.09167192  1
  F  F53  1  0.43052106  0.21338945  0.09167192  1
  F  F54  1  0.93052106  0.28661055  0.90832808  1
  F  F55  1  0.06947894  0.71338945  0.90832808  1
  Li  Li56  1  0.76293816  0.37884345  0.91370153  1
  Li  Li57  1  -0.76293816  -0.37884345  0.91370153  1
  Li  Li58  1  -0.26293816  0.87884345  -0.91370153  1
  Li  Li59  1  1.26293816  0.12115655  -0.91370153  1
  Li  Li60  1  -0.76293816  -0.37884345  -0.91370153  1
  Li  Li61  1  0.76293816  0.37884345  -0.91370153  1
  Li  Li62  1  1.26293816  0.12115655  0.91370153  1
  Li  Li63  1  -0.26293816  0.87884345  0.91370153  1
  Li  Li64  1  0.01482220  0.27921191  0.26807668  1
  Li  Li65  1  0.98517780  0.72078809  0.26807668  1
  Li  Li66  1  0.48517780  0.77921191  0.73192332  1
  Li  Li67  1  0.51482220  0.22078809  0.73192332  1
  Li  Li68  1  0.98517780  0.72078809  0.73192332  1
  Li  Li69  1  0.01482220  0.27921191  0.73192332  1
  Li  Li70  1  0.51482220  0.22078809  0.26807668  1
  Li  Li71  1  0.48517780  0.77921191  0.26807668  1
  Li  Li72  1  0.00000000  0.00000000  0.10479288  1
  Li  Li73  1  0.50000000  0.50000000  0.89520712  1
  Li  Li74  1  0.00000000  0.00000000  0.89520712  1
  Li  Li75  1  0.50000000  0.50000000  0.10479288  1
  Li  Li76  1  0.47067133  0.62234735  0.00000000  1
  Li  Li77  1  0.52932867  0.37765265  0.00000000  1
  Li  Li78  1  0.02932867  0.12234735  -0.00000000  1
  Li  Li79  1  0.97067133  0.87765265  0.00000000  1
  Li  Li80  1  0.60939684  0.01731579  0.50000000  1
  Li  Li81  1  0.39060316  0.98268421  0.50000000  1
  Li  Li82  1  0.89060316  0.51731579  0.50000000  1
  Li  Li83  1  0.10939684  0.48268421  0.50000000  1
  Li  Li84  1  0.42355324  0.65979734  0.69860705  1
  Li  Li85  1  0.57644676  0.34020266  0.69860705  1
  Li  Li86  1  0.07644676  0.15979734  0.30139295  1
  Li  Li87  1  0.92355324  0.84020266  0.30139295  1
  Li  Li88  1  0.57644676  0.34020266  0.30139295  1
  Li  Li89  1  0.42355324  0.65979734  0.30139295  1
  Li  Li90  1  0.92355324  0.84020266  0.69860705  1
  Li  Li91  1  0.07644676  0.15979734  0.69860705  1
  Li  Li92  1  0.41343066  0.37352958  0.70858536  1
  Li  Li93  1  0.58656934  0.62647042  0.70858536  1
  Li  Li94  1  0.08656934  0.87352958  0.29141464  1
  Li  Li95  1  0.91343066  0.12647042  0.29141464  1
  Li  Li96  1  0.58656934  0.62647042  0.29141464  1
  Li  Li97  1  0.41343066  0.37352958  0.29141464  1
  Li  Li98  1  0.91343066  0.12647042  0.70858536  1
  Li  Li99  1  0.08656934  0.87352958  0.70858536  1
  Li  Li100  1  0.99343438  0.38117240  0.60422451  1
  Li  Li101  1  0.00656562  0.61882760  0.60422451  1
  Li  Li102  1  0.50656562  0.88117240  0.39577549  1
  Li  Li103  1  0.49343438  0.11882760  0.39577549  1
  Li  Li104  1  0.00656562  0.61882760  0.39577549  1
  Li  Li105  1  0.99343438  0.38117240  0.39577549  1
  Li  Li106  1  0.49343438  0.11882760  0.60422451  1
  Li  Li107  1  0.50656562  0.88117240  0.60422451  1
  Li  Li108  1  0.00000000  0.00000000  0.50000000  1
  Li  Li109  1  0.50000000  0.50000000  0.50000000  1
  Li  Li110  1  0.00000000  0.50000000  0.00000000  1
  Li  Li111  1  0.50000000  0.00000000  0.00000000  1
