# generated using pymatgen
data_LiF
_symmetry_space_group_name_H-M   'P 1'
_cell_length_a   13.64591474
_cell_length_b   13.64591474
_cell_length_c   20.58283153
_cell_angle_alpha   90.00000000
_cell_angle_beta   90.00000000
_cell_angle_gamma   120.00000000
_symmetry_Int_Tables_number   1
_chemical_formula_structural   LiF
_chemical_formula_sum   'Li108 F108'
_cell_volume   3319.25836411
_cell_formula_units_Z   108
loop_
 _symmetry_equiv_pos_site_id
 _symmetry_equiv_pos_as_xyz
  1  'x, y, z'
loop_
 _atom_site_type_symbol
 _atom_site_label
 _atom_site_symmetry_multiplicity
 _atom_site_fract_x
 _atom_site_fract_y
 _atom_site_fract_z
 _atom_site_occupancy
  F  F0  1  0.24243765  0.66548641  0.14970433  1
  F  F1  1  -0.66548641  -0.42304875  0.14970433  1
  F  F2  1  0.42304875  -0.24243765  0.14970433  1
  F  F3  1  0.66548641  0.24243765  0.35029567  1
  F  F4  1  -0.42304875  -0.66548641  0.35029567  1
  F  F5  1  -0.24243765  0.42304875  0.35029567  1
  F  F6  1  -0.24243765  -0.66548641  -0.14970433  1
  F  F7  1  0.66548641  0.42304875  -0.14970433  1
  F  F8  1  -0.42304875  0.24243765  -0.14970433  1
  F  F9  1  -0.66548641  -0.24243765  0.64970433  1
  F  F10  1  0.42304875  0.66548641  0.64970433  1
  F  F11  1  0.24243765  -0.42304875  0.64970433  1
  F  F12  1  0.90910432  0.99881974  0.48303767  1
  F  F13  1  0.00118026  -0.08971542  0.48303767  1
  F  F14  1  1.08971542  0.09089568  0.48303767  1
  F  F15  1  1.33215307  0.57577099  0.68362900  1
  F  F16  1  0.24361791  -0.33215307  0.68362900  1
  F  F17  1  0.42422901  0.75638209  0.68362900  1
  F  F18  1  0.42422901  -0.33215307  0.18362900  1
  F  F19  1  1.33215307  0.75638209  0.18362900  1
  F  F20  1  0.24361791  0.57577099  0.18362900  1
  F  F21  1  0.00118026  0.09089568  0.98303767  1
  F  F22  1  1.08971542  0.99881974  0.98303767  1
  F  F23  1  0.90910432  -0.08971542  0.98303767  1
  F  F24  1  0.57577099  1.33215307  0.81637100  1
  F  F25  1  -0.33215307  0.24361791  0.81637100  1
  F  F26  1  0.75638209  0.42422901  0.81637100  1
  F  F27  1  0.99881974  0.90910432  1.01696233  1
  F  F28  1  -0.08971542  0.00118026  1.01696233  1
  F  F29  1  0.09089568  1.08971542  1.01696233  1
  F  F30  1  0.09089568  0.00118026  0.51696233  1
  F  F31  1  0.99881974  1.08971542  0.51696233  1
  F  F32  1  -0.08971542  0.90910432  0.51696233  1
  F  F33  1  -0.33215307  0.42422901  1.31637100  1
  F  F34  1  0.75638209  1.33215307  1.31637100  1
  F  F35  1  0.57577099  0.24361791  1.31637100  1
  F  F36  1  0.00000000  0.00000000  0.25000000  1
  F  F37  1  0.00000000  0.00000000  0.75000000  1
  F  F38  1  0.66666667  0.33333333  0.58333333  1
  F  F39  1  0.66666667  0.33333333  0.08333333  1
  F  F40  1  0.33333333  0.66666667  0.91666667  1
  F  F41  1  0.33333333  0.66666667  0.41666667  1
  F  F42  1  0.50000000  0.00000000  0.00000000  1
  F  F43  1  0.00000000  0.50000000  0.00000000  1
  F  F44  1  0.50000000  0.50000000  0.00000000  1
  F  F45  1  0.00000000  0.50000000  0.50000000  1
  F  F46  1  0.50000000  0.00000000  0.50000000  1
  F  F47  1  0.50000000  0.50000000  0.50000000  1
  F  F48  1  0.16666667  0.33333333  0.33333333  1
  F  F49  1  0.66666667  0.83333333  0.33333333  1
  F  F50  1  0.16666667  0.83333333  0.33333333  1
  F  F51  1  0.66666667  0.83333333  0.83333333  1
  F  F52  1  0.16666667  0.33333333  0.83333333  1
  F  F53  1  0.16666667  0.83333333  0.83333333  1
  F  F54  1  0.83333333  0.66666667  0.66666667  1
  F  F55  1  0.33333333  0.16666667  0.66666667  1
  F  F56  1  0.83333333  0.16666667  0.66666667  1
  F  F57  1  0.33333333  0.16666667  0.16666667  1
  F  F58  1  0.83333333  0.66666667  0.16666667  1
  F  F59  1  0.83333333  0.16666667  0.16666667  1
  F  F60  1  0.54864881  0.53019489  0.56100012  1
  F  F61  1  0.46980511  0.01845392  0.56100012  1
  F  F62  1  0.98154608  0.45135119  0.56100012  1
  F  F63  1  0.53019489  0.54864881  0.93899988  1
  F  F64  1  0.01845392  0.46980511  0.93899988  1
  F  F65  1  0.45135119  0.98154608  0.93899988  1
  F  F66  1  0.45135119  0.46980511  0.43899988  1
  F  F67  1  0.53019489  0.98154608  0.43899988  1
  F  F68  1  0.01845392  0.54864881  0.43899988  1
  F  F69  1  0.46980511  0.45135119  0.06100012  1
  F  F70  1  0.98154608  0.53019489  0.06100012  1
  F  F71  1  0.54864881  0.01845392  0.06100012  1
  F  F72  1  0.21531548  0.86352823  0.89433345  1
  F  F73  1  0.13647177  0.35178725  0.89433345  1
  F  F74  1  0.64821275  0.78468452  0.89433345  1
  F  F75  1  0.19686156  0.88198215  0.27233322  1
  F  F76  1  0.68512059  0.80313844  0.27233322  1
  F  F77  1  0.11801785  0.31487941  0.27233322  1
  F  F78  1  0.11801785  0.80313844  0.77233322  1
  F  F79  1  0.19686156  0.31487941  0.77233322  1
  F  F80  1  0.68512059  0.88198215  0.77233322  1
  F  F81  1  0.13647177  0.78468452  0.39433345  1
  F  F82  1  0.64821275  0.86352823  0.39433345  1
  F  F83  1  0.21531548  0.35178725  0.39433345  1
  F  F84  1  0.88198215  0.19686156  0.22766678  1
  F  F85  1  0.80313844  0.68512059  0.22766678  1
  F  F86  1  0.31487941  0.11801785  0.22766678  1
  F  F87  1  0.86352823  0.21531548  0.60566655  1
  F  F88  1  0.35178725  0.13647177  0.60566655  1
  F  F89  1  0.78468452  0.64821275  0.60566655  1
  F  F90  1  0.78468452  0.13647177  0.10566655  1
  F  F91  1  0.86352823  0.64821275  0.10566655  1
  F  F92  1  0.35178725  0.21531548  0.10566655  1
  F  F93  1  0.80313844  0.11801785  0.72766678  1
  F  F94  1  0.31487941  0.19686156  0.72766678  1
  F  F95  1  0.88198215  0.68512059  0.72766678  1
  F  F96  1  0.00000000  0.00000000  0.58200285  1
  F  F97  1  0.00000000  0.00000000  0.91799715  1
  F  F98  1  0.00000000  0.00000000  0.41799715  1
  F  F99  1  0.00000000  0.00000000  0.08200285  1
  F  F100  1  0.66666667  0.33333333  0.91533619  1
  F  F101  1  0.66666667  0.33333333  0.25133048  1
  F  F102  1  0.66666667  0.33333333  0.75133048  1
  F  F103  1  0.66666667  0.33333333  0.41533619  1
  F  F104  1  0.33333333  0.66666667  0.24866952  1
  F  F105  1  0.33333333  0.66666667  0.58466381  1
  F  F106  1  0.33333333  0.66666667  0.08466381  1
  F  F107  1  0.33333333  0.66666667  0.74866952  1
  Li  Li108  1  0.01492813  0.50847833  0.66167469  1
  Li  Li109  1  0.49152167  0.50644980  0.66167469  1
  Li  Li110  1  0.49355020  0.98507187  0.66167469  1
  Li  Li111  1  0.50847833  0.01492813  0.83832531  1
  Li  Li112  1  0.50644980  0.49152167  0.83832531  1
  Li  Li113  1  0.98507187  0.49355020  0.83832531  1
  Li  Li114  1  0.98507187  0.49152167  0.33832531  1
  Li  Li115  1  0.50847833  0.49355020  0.33832531  1
  Li  Li116  1  0.50644980  0.01492813  0.33832531  1
  Li  Li117  1  0.49152167  0.98507187  0.16167469  1
  Li  Li118  1  0.49355020  0.50847833  0.16167469  1
  Li  Li119  1  0.01492813  0.50644980  0.16167469  1
  Li  Li120  1  0.68159480  0.84181166  0.99500802  1
  Li  Li121  1  0.15818834  0.83978313  0.99500802  1
  Li  Li122  1  0.16021687  0.31840520  0.99500802  1
  Li  Li123  1  0.17514500  0.34826146  0.17165864  1
  Li  Li124  1  0.17311647  0.82485500  0.17165864  1
  Li  Li125  1  0.65173854  0.82688353  0.17165864  1
  Li  Li126  1  0.65173854  0.82485500  0.67165864  1
  Li  Li127  1  0.17514500  0.82688353  0.67165864  1
  Li  Li128  1  0.17311647  0.34826146  0.67165864  1
  Li  Li129  1  0.15818834  0.31840520  0.49500802  1
  Li  Li130  1  0.16021687  0.84181166  0.49500802  1
  Li  Li131  1  0.68159480  0.83978313  0.49500802  1
  Li  Li132  1  0.34826146  0.17514500  0.32834136  1
  Li  Li133  1  0.82485500  0.17311647  0.32834136  1
  Li  Li134  1  0.82688353  0.65173854  0.32834136  1
  Li  Li135  1  0.84181166  0.68159480  0.50499198  1
  Li  Li136  1  0.83978313  0.15818834  0.50499198  1
  Li  Li137  1  0.31840520  0.16021687  0.50499198  1
  Li  Li138  1  0.31840520  0.15818834  0.00499198  1
  Li  Li139  1  0.84181166  0.16021687  0.00499198  1
  Li  Li140  1  0.83978313  0.68159480  0.00499198  1
  Li  Li141  1  0.82485500  0.65173854  0.82834136  1
  Li  Li142  1  0.82688353  0.17514500  0.82834136  1
  Li  Li143  1  0.34826146  0.17311647  0.82834136  1
  Li  Li144  1  0.55030757  0.14797873  0.99586687  1
  Li  Li145  1  0.85202127  0.40232884  0.99586687  1
  Li  Li146  1  0.59767116  0.44969243  0.99586687  1
  Li  Li147  1  0.14797873  0.55030757  0.50413313  1
  Li  Li148  1  0.40232884  0.85202127  0.50413313  1
  Li  Li149  1  0.44969243  0.59767116  0.50413313  1
  Li  Li150  1  0.44969243  0.85202127  0.00413313  1
  Li  Li151  1  0.14797873  0.59767116  0.00413313  1
  Li  Li152  1  0.40232884  0.55030757  0.00413313  1
  Li  Li153  1  0.85202127  0.44969243  0.49586687  1
  Li  Li154  1  0.59767116  0.14797873  0.49586687  1
  Li  Li155  1  0.55030757  0.40232884  0.49586687  1
  Li  Li156  1  0.21697424  0.48131206  0.32920020  1
  Li  Li157  1  0.51868794  0.73566217  0.32920020  1
  Li  Li158  1  0.26433783  0.78302576  0.32920020  1
  Li  Li159  1  0.81464540  0.88364091  0.83746647  1
  Li  Li160  1  0.06899551  0.18535460  0.83746647  1
  Li  Li161  1  0.11635909  0.93100449  0.83746647  1
  Li  Li162  1  0.11635909  0.18535460  0.33746647  1
  Li  Li163  1  0.81464540  0.93100449  0.33746647  1
  Li  Li164  1  0.06899551  0.88364091  0.33746647  1
  Li  Li165  1  0.51868794  0.78302576  0.82920020  1
  Li  Li166  1  0.26433783  0.48131206  0.82920020  1
  Li  Li167  1  0.21697424  0.73566217  0.82920020  1
  Li  Li168  1  0.88364091  0.81464540  0.66253353  1
  Li  Li169  1  0.18535460  0.06899551  0.66253353  1
  Li  Li170  1  0.93100449  0.11635909  0.66253353  1
  Li  Li171  1  0.48131206  0.21697424  0.17079980  1
  Li  Li172  1  0.73566217  0.51868794  0.17079980  1
  Li  Li173  1  0.78302576  0.26433783  0.17079980  1
  Li  Li174  1  0.78302576  0.51868794  0.67079980  1
  Li  Li175  1  0.48131206  0.26433783  0.67079980  1
  Li  Li176  1  0.73566217  0.21697424  0.67079980  1
  Li  Li177  1  0.18535460  0.11635909  0.16253353  1
  Li  Li178  1  0.93100449  0.81464540  0.16253353  1
  Li  Li179  1  0.88364091  0.06899551  0.16253353  1
  Li  Li180  1  0.00000000  0.00000000  0.14887620  1
  Li  Li181  1  0.00000000  0.00000000  0.35112380  1
  Li  Li182  1  0.00000000  0.00000000  0.85112380  1
  Li  Li183  1  0.00000000  0.00000000  0.64887620  1
  Li  Li184  1  0.66666667  0.33333333  0.48220953  1
  Li  Li185  1  0.66666667  0.33333333  0.68445714  1
  Li  Li186  1  0.66666667  0.33333333  0.18445714  1
  Li  Li187  1  0.66666667  0.33333333  0.98220953  1
  Li  Li188  1  0.33333333  0.66666667  0.81554286  1
  Li  Li189  1  0.33333333  0.66666667  0.01779047  1
  Li  Li190  1  0.33333333  0.66666667  0.51779047  1
  Li  Li191  1  0.33333333  0.66666667  0.31554286  1
  Li  Li192  1  0.50126872  0.00000000  0.25000000  1
  Li  Li193  1  0.00000000  0.50126872  0.25000000  1
  Li  Li194  1  0.49873128  0.49873128  0.25000000  1
  Li  Li195  1  0.49873128  0.00000000  0.75000000  1
  Li  Li196  1  0.00000000  0.49873128  0.75000000  1
  Li  Li197  1  0.50126872  0.50126872  0.75000000  1
  Li  Li198  1  0.16793539  0.33333333  0.58333333  1
  Li  Li199  1  0.66666667  0.83460206  0.58333333  1
  Li  Li200  1  0.16539794  0.83206461  0.58333333  1
  Li  Li201  1  0.16539794  0.33333333  0.08333333  1
  Li  Li202  1  0.66666667  0.83206461  0.08333333  1
  Li  Li203  1  0.16793539  0.83460206  0.08333333  1
  Li  Li204  1  0.83460206  0.66666667  0.91666667  1
  Li  Li205  1  0.33333333  0.16793539  0.91666667  1
  Li  Li206  1  0.83206461  0.16539794  0.91666667  1
  Li  Li207  1  0.83206461  0.66666667  0.41666667  1
  Li  Li208  1  0.33333333  0.16539794  0.41666667  1
  Li  Li209  1  0.83460206  0.16793539  0.41666667  1
  Li  Li210  1  0.00000000  0.00000000  0.00000000  1
  Li  Li211  1  0.00000000  0.00000000  0.50000000  1
  Li  Li212  1  0.66666667  0.33333333  0.33333333  1
  Li  Li213  1  0.66666667  0.33333333  0.83333333  1
  Li  Li214  1  0.33333333  0.66666667  0.66666667  1
  Li  Li215  1  0.33333333  0.66666667  0.16666667  1
