# generated using pymatgen
data_Li3Y2Sb2P3
_symmetry_space_group_name_H-M   'P 1'
_cell_length_a   4.55227948
_cell_length_b   4.69177638
_cell_length_c   6.94157450
_cell_angle_alpha   95.50472564
_cell_angle_beta   101.98814803
_cell_angle_gamma   112.11029508
_symmetry_Int_Tables_number   1
_chemical_formula_structural   Li3Y2Sb2P3
_chemical_formula_sum   'Li3 Y2 Sb2 P3'
_cell_volume   131.85859770
_cell_formula_units_Z   1
loop_
 _symmetry_equiv_pos_site_id
 _symmetry_equiv_pos_as_xyz
  1  'x, y, z'
loop_
 _atom_site_type_symbol
 _atom_site_label
 _atom_site_symmetry_multiplicity
 _atom_site_fract_x
 _atom_site_fract_y
 _atom_site_fract_z
 _atom_site_occupancy
  Y  Y0  1  0.12500000  0.00000000  0.25000000  1
  Y  Y1  1  0.00000000  0.00000000  0.00000000  1
  P  P2  1  0.37500000  0.00000000  0.25000000  1
  P  P3  1  0.25000000  0.25000000  0.25000000  1
  P  P4  1  0.00000000  0.25000000  0.12500000  1
  Li  Li5  1  0.39695031  0.54265634  0.22747106  1
  Li  Li6  1  0.34075901  0.89368756  0.88328830  1
  Li  Li7  1  0.61809941  0.10010662  0.59628485  1
  Sb  Sb8  1  0.38599643  0.33193477  0.97558744  1
  Sb  Sb9  1  0.19396427  0.52586765  0.23421077  1
