# generated using pymatgen
data_LiF
_symmetry_space_group_name_H-M   'P 1'
_cell_length_a   4.76142188
_cell_length_b   4.76142188
_cell_length_c   13.39652191
_cell_angle_alpha   90.00000000
_cell_angle_beta   90.00000000
_cell_angle_gamma   120.00000000
_symmetry_Int_Tables_number   1
_chemical_formula_structural   LiF
_chemical_formula_sum   'Li9 F9'
_cell_volume   263.02438691
_cell_formula_units_Z   9
loop_
 _symmetry_equiv_pos_site_id
 _symmetry_equiv_pos_as_xyz
  1  'x, y, z'
loop_
 _atom_site_type_symbol
 _atom_site_label
 _atom_site_symmetry_multiplicity
 _atom_site_fract_x
 _atom_site_fract_y
 _atom_site_fract_z
 _atom_site_occupancy
  F  F0  1  0.00000000  0.00000000  0.07215606  1
  F  F1  1  0.00000000  0.00000000  0.92784394  1
  F  F2  1  0.66429097  0.47600381  0.50000000  1
  F  F3  1  0.52399619  0.18828717  0.50000000  1
  F  F4  1  0.81171283  0.33570903  0.50000000  1
  F  F5  1  0.47600381  0.66429097  0.50000000  1
  F  F6  1  0.18828717  0.52399619  0.50000000  1
  F  F7  1  0.33570903  0.81171283  0.50000000  1
  F  F8  1  0.00000000  0.00000000  0.50000000  1
  Li  Li9  1  0.74198344  0.00000000  0.82060403  1
  Li  Li10  1  0.00000000  0.74198344  0.82060403  1
  Li  Li11  1  -0.74198344  -0.74198344  0.82060403  1
  Li  Li12  1  0.74198344  0.00000000  -0.82060403  1
  Li  Li13  1  0.00000000  0.74198344  -0.82060403  1
  Li  Li14  1  -0.74198344  -0.74198344  -0.82060403  1
  Li  Li15  1  0.72721020  0.00000000  0.50000000  1
  Li  Li16  1  0.00000000  0.72721020  0.50000000  1
  Li  Li17  1  0.27278980  0.27278980  0.50000000  1
