# generated using pymatgen
data_LiF
_symmetry_space_group_name_H-M   'P 1'
_cell_length_a   8.36295574
_cell_length_b   8.36295574
_cell_length_c   12.82583013
_cell_angle_alpha   90.00000000
_cell_angle_beta   90.00000000
_cell_angle_gamma   120.00000000
_symmetry_Int_Tables_number   1
_chemical_formula_structural   LiF
_chemical_formula_sum   'Li23 F23'
_cell_volume   776.84739097
_cell_formula_units_Z   23
loop_
 _symmetry_equiv_pos_site_id
 _symmetry_equiv_pos_as_xyz
  1  'x, y, z'
loop_
 _atom_site_type_symbol
 _atom_site_label
 _atom_site_symmetry_multiplicity
 _atom_site_fract_x
 _atom_site_fract_y
 _atom_site_fract_z
 _atom_site_occupancy
  F  F0  1  0.66666667  0.33333333  -0.00000000  1
  F  F1  1  0.00000000  0.00000000  0.04130709  1
  F  F2  1  0.00000000  0.00000000  0.95869291  1
  F  F3  1  0.79359402  0.20640598  -0.00000000  1
  F  F4  1  0.79359402  0.58718804  -0.00000000  1
  F  F5  1  0.41281196  0.20640598  -0.00000000  1
  F  F6  1  0.48846365  0.90197731  0.55249381  1
  F  F7  1  0.09802269  0.58648633  0.55249381  1
  F  F8  1  0.41351367  0.51153635  0.55249381  1
  F  F9  1  0.09802269  0.51153635  0.44750619  1
  F  F10  1  0.41351367  0.90197731  0.44750619  1
  F  F11  1  0.48846365  0.58648633  0.44750619  1
  F  F12  1  0.81559691  0.64659957  0.63044107  1
  F  F13  1  0.35340043  0.16899734  0.63044107  1
  F  F14  1  0.83100266  0.18440309  0.63044107  1
  F  F15  1  0.35340043  0.18440309  0.36955893  1
  F  F16  1  0.83100266  0.64659957  0.36955893  1
  F  F17  1  0.81559691  0.16899734  0.36955893  1
  F  F18  1  0.85629367  0.14370633  0.00000000  1
  F  F19  1  0.85629367  0.71258735  -0.00000000  1
  F  F20  1  0.28741265  0.14370633  -0.00000000  1
  F  F21  1  0.33333333  0.66666667  0.14499150  1
  F  F22  1  0.33333333  0.66666667  0.85500850  1
  Li  Li23  1  0.33333333  0.66666667  0.50000000  1
  Li  Li24  1  0.59103645  0.40896355  -0.00000000  1
  Li  Li25  1  0.59103645  0.18207291  -0.00000000  1
  Li  Li26  1  0.81792709  0.40896355  0.00000000  1
  Li  Li27  1  0.14684367  0.57646943  0.09646389  1
  Li  Li28  1  -0.57646943  -0.42962576  0.09646389  1
  Li  Li29  1  0.42962576  -0.14684367  0.09646389  1
  Li  Li30  1  -0.57646943  -0.14684367  -0.09646389  1
  Li  Li31  1  0.42962576  0.57646943  -0.09646389  1
  Li  Li32  1  0.14684367  -0.42962576  -0.09646389  1
  Li  Li33  1  0.00000000  0.00000000  0.50000000  1
  Li  Li34  1  0.64532807  0.00576357  0.50373140  1
  Li  Li35  1  0.99423643  0.63956450  0.50373140  1
  Li  Li36  1  0.36043550  0.35467193  0.50373140  1
  Li  Li37  1  0.99423643  0.35467193  0.49626860  1
  Li  Li38  1  0.36043550  0.00576357  0.49626860  1
  Li  Li39  1  0.64532807  0.63956450  0.49626860  1
  Li  Li40  1  0.52406286  0.84270191  0.69713091  1
  Li  Li41  1  0.15729809  0.68136095  0.69713091  1
  Li  Li42  1  0.31863905  0.47593714  0.69713091  1
  Li  Li43  1  0.15729809  0.47593714  0.30286909  1
  Li  Li44  1  0.31863905  0.84270191  0.30286909  1
  Li  Li45  1  0.52406286  0.68136095  0.30286909  1
