# generated using pymatgen
data_Li3Y2(As2P)2
_symmetry_space_group_name_H-M   'P 1'
_cell_length_a   5.77244974
_cell_length_b   5.65146340
_cell_length_c   6.99941292
_cell_angle_alpha   93.30408975
_cell_angle_beta   97.19562056
_cell_angle_gamma   103.27121533
_symmetry_Int_Tables_number   1
_chemical_formula_structural   Li3Y2(As2P)2
_chemical_formula_sum   'Li3 Y2 As4 P2'
_cell_volume   219.60789396
_cell_formula_units_Z   1
loop_
 _symmetry_equiv_pos_site_id
 _symmetry_equiv_pos_as_xyz
  1  'x, y, z'
loop_
 _atom_site_type_symbol
 _atom_site_label
 _atom_site_symmetry_multiplicity
 _atom_site_fract_x
 _atom_site_fract_y
 _atom_site_fract_z
 _atom_site_occupancy
  P  P0  1  0.00000000  0.00000000  0.00000000  1
  P  P1  1  0.50000000  0.50000000  0.50000000  1
  As  As2  1  0.50000000  0.50000000  0.00000000  1
  As  As3  1  0.50000000  0.00000000  0.50000000  1
  As  As4  1  0.00000000  0.50000000  0.50000000  1
  As  As5  1  0.59511682  0.73267669  0.68166565  1
  Li  Li6  1  0.77936949  0.81612443  0.77102726  1
  Li  Li7  1  0.72541306  0.05448311  0.82862073  1
  Li  Li8  1  0.91129527  0.38554038  0.07570717  1
  Y  Y9  1  0.54119954  0.48667923  0.47482449  1
  Y  Y10  1  0.85105183  0.02463428  0.11224092  1
