# generated using pymatgen
data_LiF
_symmetry_space_group_name_H-M   'P 1'
_cell_length_a   5.77873552
_cell_length_b   8.20378514
_cell_length_c   9.92075216
_cell_angle_alpha   90.00000000
_cell_angle_beta   90.00000000
_cell_angle_gamma   90.00000000
_symmetry_Int_Tables_number   1
_chemical_formula_structural   LiF
_chemical_formula_sum   'Li18 F18'
_cell_volume   470.31810380
_cell_formula_units_Z   18
loop_
 _symmetry_equiv_pos_site_id
 _symmetry_equiv_pos_as_xyz
  1  'x, y, z'
loop_
 _atom_site_type_symbol
 _atom_site_label
 _atom_site_symmetry_multiplicity
 _atom_site_fract_x
 _atom_site_fract_y
 _atom_site_fract_z
 _atom_site_occupancy
  F  F0  1  0.00000000  0.50000000  0.50000000  1
  F  F1  1  0.50000000  0.00000000  0.50000000  1
  F  F2  1  0.00000000  0.50000000  0.88503582  1
  F  F3  1  0.50000000  0.00000000  0.11496418  1
  F  F4  1  0.00000000  0.50000000  0.11496418  1
  F  F5  1  0.50000000  0.00000000  0.88503582  1
  F  F6  1  0.46773969  0.10275575  0.00000000  1
  F  F7  1  0.53226031  0.89724425  0.00000000  1
  F  F8  1  0.03226031  0.60275575  0.00000000  1
  F  F9  1  0.96773969  0.39724425  0.00000000  1
  F  F10  1  0.09228075  0.62697403  0.92303103  1
  F  F11  1  -0.09228075  -0.62697403  0.92303103  1
  F  F12  1  0.40771925  1.12697403  -0.92303103  1
  F  F13  1  0.59228075  -0.12697403  -0.92303103  1
  F  F14  1  -0.09228075  -0.62697403  -0.92303103  1
  F  F15  1  0.09228075  0.62697403  -0.92303103  1
  F  F16  1  0.59228075  -0.12697403  0.92303103  1
  F  F17  1  0.40771925  1.12697403  0.92303103  1
  Li  Li18  1  0.36320018  0.79611317  0.50000000  1
  Li  Li19  1  0.63679982  0.20388683  0.50000000  1
  Li  Li20  1  0.13679982  0.29611317  0.50000000  1
  Li  Li21  1  0.86320018  0.70388683  0.50000000  1
  Li  Li22  1  0.64995355  0.27393082  -0.00000000  1
  Li  Li23  1  0.35004645  0.72606918  0.00000000  1
  Li  Li24  1  0.85004645  0.77393082  0.00000000  1
  Li  Li25  1  0.14995355  0.22606918  0.00000000  1
  Li  Li26  1  0.15412309  0.77802899  0.63814353  1
  Li  Li27  1  0.84587691  0.22197101  0.63814353  1
  Li  Li28  1  0.34587691  0.27802899  0.36185647  1
  Li  Li29  1  0.65412309  0.72197101  0.36185647  1
  Li  Li30  1  0.84587691  0.22197101  0.36185647  1
  Li  Li31  1  0.15412309  0.77802899  0.36185647  1
  Li  Li32  1  0.65412309  0.72197101  0.63814353  1
  Li  Li33  1  0.34587691  0.27802899  0.63814353  1
  Li  Li34  1  0.00000000  0.00000000  0.50000000  1
  Li  Li35  1  0.50000000  0.50000000  0.50000000  1
