# generated using pymatgen
data_Li2Y2As2P3Se
_symmetry_space_group_name_H-M   'P 1'
_cell_length_a   5.43692305
_cell_length_b   5.60441573
_cell_length_c   7.36222873
_cell_angle_alpha   94.00181835
_cell_angle_beta   98.71512840
_cell_angle_gamma   106.07371381
_symmetry_Int_Tables_number   1
_chemical_formula_structural   Li2Y2As2P3Se
_chemical_formula_sum   'Li2 Y2 As2 P3 Se1'
_cell_volume   211.59427322
_cell_formula_units_Z   1
loop_
 _symmetry_equiv_pos_site_id
 _symmetry_equiv_pos_as_xyz
  1  'x, y, z'
loop_
 _atom_site_type_symbol
 _atom_site_label
 _atom_site_symmetry_multiplicity
 _atom_site_fract_x
 _atom_site_fract_y
 _atom_site_fract_z
 _atom_site_occupancy
  Se  Se0  1  0.00000000  0.00000000  0.00000000  1
  Y  Y1  1  0.50000000  0.50000000  0.50000000  1
  Y  Y2  1  0.25000000  0.25000000  0.25000000  1
  P  P3  1  0.75000000  0.25000000  0.00000000  1
  P  P4  1  0.25000000  0.75000000  0.50000000  1
  P  P5  1  0.48623453  0.85064165  0.58630218  1
  As  As6  1  0.91567960  0.36664715  0.71858866  1
  As  As7  1  0.94496943  0.16879660  0.97367555  1
  Li  Li8  1  0.90247292  0.88237143  0.02738945  1
  Li  Li9  1  0.80499633  0.20106490  0.48440067  1
