# generated using pymatgen
data_Li2Y2As2P4Se
_symmetry_space_group_name_H-M   'P 1'
_cell_length_a   4.93733114
_cell_length_b   4.96891022
_cell_length_c   7.28269427
_cell_angle_alpha   94.95728270
_cell_angle_beta   100.79593112
_cell_angle_gamma   109.91143437
_symmetry_Int_Tables_number   1
_chemical_formula_structural   Li2Y2As2P4Se
_chemical_formula_sum   'Li2 Y2 As2 P4 Se1'
_cell_volume   162.81657852
_cell_formula_units_Z   1
loop_
 _symmetry_equiv_pos_site_id
 _symmetry_equiv_pos_as_xyz
  1  'x, y, z'
loop_
 _atom_site_type_symbol
 _atom_site_label
 _atom_site_symmetry_multiplicity
 _atom_site_fract_x
 _atom_site_fract_y
 _atom_site_fract_z
 _atom_site_occupancy
  Se  Se0  1  0.00000000  0.00000000  0.00000000  1
  Y  Y1  1  0.50000000  0.50000000  0.50000000  1
  Y  Y2  1  0.25000000  0.25000000  0.25000000  1
  P  P3  1  0.75000000  0.25000000  0.00000000  1
  P  P4  1  0.25000000  0.75000000  0.50000000  1
  P  P5  1  0.19538163  0.46579023  0.02046211  1
  P  P6  1  0.86265388  0.08753225  0.00692503  1
  As  As7  1  0.13651587  0.92178770  0.81510483  1
  As  As8  1  0.91112567  0.35210735  0.86929102  1
  Li  Li9  1  0.85718121  0.13830601  0.90358349  1
  Li  Li10  1  0.23312541  0.58569166  0.89345635  1
