# generated using pymatgen
data_LiY2MoP3Se2
_symmetry_space_group_name_H-M   'P 1'
_cell_length_a   5.35944068
_cell_length_b   5.46773187
_cell_length_c   7.22165221
_cell_angle_alpha   94.21138890
_cell_angle_beta   99.17152950
_cell_angle_gamma   106.91547544
_symmetry_Int_Tables_number   1
_chemical_formula_structural   LiY2MoP3Se2
_chemical_formula_sum   'Li1 Y2 Mo1 P3 Se2'
_cell_volume   198.26418104
_cell_formula_units_Z   1
loop_
 _symmetry_equiv_pos_site_id
 _symmetry_equiv_pos_as_xyz
  1  'x, y, z'
loop_
 _atom_site_type_symbol
 _atom_site_label
 _atom_site_symmetry_multiplicity
 _atom_site_fract_x
 _atom_site_fract_y
 _atom_site_fract_z
 _atom_site_occupancy
  Se  Se0  1  0.00000000  0.00000000  0.00000000  1
  Se  Se1  1  0.50000000  0.50000000  0.50000000  1
  Y  Y2  1  0.50000000  0.50000000  0.00000000  1
  Y  Y3  1  0.50000000  0.00000000  0.50000000  1
  P  P4  1  0.00000000  0.50000000  0.50000000  1
  P  P5  1  0.24656713  0.42508693  0.02863250  1
  P  P6  1  0.06219029  0.21912500  0.35334764  1
  Mo  Mo7  1  0.26834201  0.35022271  0.73218725  1
  Li  Li8  1  0.77017638  0.92978835  0.64531120  1
