# generated using pymatgen
data_LiF
_symmetry_space_group_name_H-M   'P 1'
_cell_length_a   16.24660765
_cell_length_b   16.24660765
_cell_length_c   5.54513652
_cell_angle_alpha   90.00000000
_cell_angle_beta   90.00000000
_cell_angle_gamma   90.00000000
_symmetry_Int_Tables_number   1
_chemical_formula_structural   LiF
_chemical_formula_sum   'Li48 F48'
_cell_volume   1463.65131833
_cell_formula_units_Z   48
loop_
 _symmetry_equiv_pos_site_id
 _symmetry_equiv_pos_as_xyz
  1  'x, y, z'
loop_
 _atom_site_type_symbol
 _atom_site_label
 _atom_site_symmetry_multiplicity
 _atom_site_fract_x
 _atom_site_fract_y
 _atom_site_fract_z
 _atom_site_occupancy
  F  F0  1  0.11116397  0.46193340  0.20079360  1
  F  F1  1  0.38883603  -0.46193340  0.70079360  1
  F  F2  1  -0.21193340  0.86116397  0.45079360  1
  F  F3  1  0.71193340  0.13883603  0.95079360  1
  F  F4  1  0.38883603  0.46193340  -0.20079360  1
  F  F5  1  0.11116397  -0.46193340  0.29920640  1
  F  F6  1  0.71193340  0.86116397  0.54920640  1
  F  F7  1  -0.21193340  0.13883603  0.04920640  1
  F  F8  1  -0.11116397  -0.46193340  -0.20079360  1
  F  F9  1  0.61116397  0.46193340  0.29920640  1
  F  F10  1  1.21193340  0.13883603  0.54920640  1
  F  F11  1  0.28806660  0.86116397  0.04920640  1
  F  F12  1  0.61116397  -0.46193340  0.20079360  1
  F  F13  1  -0.11116397  0.46193340  0.70079360  1
  F  F14  1  0.28806660  0.13883603  0.45079360  1
  F  F15  1  1.21193340  0.86116397  0.95079360  1
  F  F16  1  0.61116397  0.96193340  0.70079360  1
  F  F17  1  0.88883603  0.03806660  1.20079360  1
  F  F18  1  0.28806660  1.36116397  0.95079360  1
  F  F19  1  1.21193340  0.63883603  1.45079360  1
  F  F20  1  0.88883603  0.96193340  0.29920640  1
  F  F21  1  0.61116397  0.03806660  0.79920640  1
  F  F22  1  1.21193340  1.36116397  1.04920640  1
  F  F23  1  0.28806660  0.63883603  0.54920640  1
  F  F24  1  0.38883603  0.03806660  0.29920640  1
  F  F25  1  1.11116397  0.96193340  0.79920640  1
  F  F26  1  1.71193340  0.63883603  1.04920640  1
  F  F27  1  0.78806660  1.36116397  0.54920640  1
  F  F28  1  1.11116397  0.03806660  0.70079360  1
  F  F29  1  0.38883603  0.96193340  1.20079360  1
  F  F30  1  0.78806660  0.63883603  0.95079360  1
  F  F31  1  1.71193340  1.36116397  1.45079360  1
  F  F32  1  0.72514577  0.97514577  0.12500000  1
  F  F33  1  0.77485423  0.02485423  0.62500000  1
  F  F34  1  0.27485423  0.47514577  0.37500000  1
  F  F35  1  0.22514577  0.52485423  0.87500000  1
  F  F36  1  0.27485423  0.02485423  0.87500000  1
  F  F37  1  0.22514577  0.97514577  0.37500000  1
  F  F38  1  0.72514577  0.52485423  0.62500000  1
  F  F39  1  0.77485423  0.47514577  0.12500000  1
  F  F40  1  0.22514577  0.47514577  0.62500000  1
  F  F41  1  0.27485423  0.52485423  0.12500000  1
  F  F42  1  0.77485423  0.97514577  0.87500000  1
  F  F43  1  0.72514577  0.02485423  0.37500000  1
  F  F44  1  0.77485423  0.52485423  0.37500000  1
  F  F45  1  0.72514577  0.47514577  0.87500000  1
  F  F46  1  0.22514577  0.02485423  0.12500000  1
  F  F47  1  0.27485423  0.97514577  0.62500000  1
  Li  Li48  1  0.43228977  0.68228977  0.12500000  1
  Li  Li49  1  0.06771023  0.31771023  0.62500000  1
  Li  Li50  1  0.56771023  0.18228977  0.37500000  1
  Li  Li51  1  0.93228977  0.81771023  0.87500000  1
  Li  Li52  1  0.56771023  0.31771023  0.87500000  1
  Li  Li53  1  0.93228977  0.68228977  0.37500000  1
  Li  Li54  1  0.43228977  0.81771023  0.62500000  1
  Li  Li55  1  0.06771023  0.18228977  0.12500000  1
  Li  Li56  1  0.93228977  0.18228977  0.62500000  1
  Li  Li57  1  0.56771023  0.81771023  0.12500000  1
  Li  Li58  1  0.06771023  0.68228977  0.87500000  1
  Li  Li59  1  0.43228977  0.31771023  0.37500000  1
  Li  Li60  1  0.06771023  0.81771023  0.37500000  1
  Li  Li61  1  0.43228977  0.18228977  0.87500000  1
  Li  Li62  1  0.93228977  0.31771023  0.12500000  1
  Li  Li63  1  0.56771023  0.68228977  0.62500000  1
  Li  Li64  1  0.00000000  0.25000000  0.37500000  1
  Li  Li65  1  0.00000000  0.75000000  0.62500000  1
  Li  Li66  1  0.50000000  0.25000000  0.62500000  1
  Li  Li67  1  0.50000000  0.75000000  0.37500000  1
  Li  Li68  1  0.50000000  0.75000000  0.87500000  1
  Li  Li69  1  0.50000000  0.25000000  0.12500000  1
  Li  Li70  1  0.00000000  0.75000000  0.12500000  1
  Li  Li71  1  0.00000000  0.25000000  0.87500000  1
  Li  Li72  1  0.00000000  0.25000000  0.12500000  1
  Li  Li73  1  0.00000000  0.75000000  0.37500000  1
  Li  Li74  1  0.00000000  0.75000000  0.87500000  1
  Li  Li75  1  0.00000000  0.25000000  0.62500000  1
  Li  Li76  1  0.50000000  0.75000000  0.62500000  1
  Li  Li77  1  0.50000000  0.25000000  0.87500000  1
  Li  Li78  1  0.50000000  0.25000000  0.37500000  1
  Li  Li79  1  0.50000000  0.75000000  0.12500000  1
  Li  Li80  1  0.00000000  0.00000000  0.00000000  1
  Li  Li81  1  0.50000000  0.00000000  0.50000000  1
  Li  Li82  1  0.25000000  0.75000000  0.25000000  1
  Li  Li83  1  0.25000000  0.25000000  0.75000000  1
  Li  Li84  1  0.50000000  0.00000000  -0.00000000  1
  Li  Li85  1  0.00000000  0.00000000  0.50000000  1
  Li  Li86  1  0.25000000  0.75000000  0.75000000  1
  Li  Li87  1  0.25000000  0.25000000  0.25000000  1
  Li  Li88  1  0.50000000  0.50000000  0.50000000  1
  Li  Li89  1  0.00000000  0.50000000  -0.00000000  1
  Li  Li90  1  0.75000000  0.25000000  0.75000000  1
  Li  Li91  1  0.75000000  0.75000000  0.25000000  1
  Li  Li92  1  0.00000000  0.50000000  0.50000000  1
  Li  Li93  1  0.50000000  0.50000000  -0.00000000  1
  Li  Li94  1  0.75000000  0.25000000  0.25000000  1
  Li  Li95  1  0.75000000  0.75000000  0.75000000  1
