# generated using pymatgen
data_Li2YAsP3
_symmetry_space_group_name_H-M   'P 1'
_cell_length_a   4.89971883
_cell_length_b   4.94547733
_cell_length_c   6.93886626
_cell_angle_alpha   95.19334196
_cell_angle_beta   101.12088373
_cell_angle_gamma   109.94045397
_symmetry_Int_Tables_number   1
_chemical_formula_structural   Li2YAsP3
_chemical_formula_sum   'Li2 Y1 As1 P3'
_cell_volume   152.84778018
_cell_formula_units_Z   1
loop_
 _symmetry_equiv_pos_site_id
 _symmetry_equiv_pos_as_xyz
  1  'x, y, z'
loop_
 _atom_site_type_symbol
 _atom_site_label
 _atom_site_symmetry_multiplicity
 _atom_site_fract_x
 _atom_site_fract_y
 _atom_site_fract_z
 _atom_site_occupancy
  P  P0  1  0.00000000  0.00000000  0.00000000  1
  P  P1  1  0.50000000  0.50000000  0.50000000  1
  P  P2  1  0.25000000  0.25000000  0.25000000  1
  As  As3  1  0.75000000  0.25000000  0.00000000  1
  Li  Li4  1  0.25000000  0.75000000  0.50000000  1
  Li  Li5  1  0.97370127  0.93263394  0.78209703  1
  Y  Y6  1  0.65987242  0.27158857  0.30449509  1
