# generated using pymatgen
data_Li2Y2Sb2P2Se
_symmetry_space_group_name_H-M   'P 1'
_cell_length_a   5.62536331
_cell_length_b   5.84523023
_cell_length_c   6.75677353
_cell_angle_alpha   93.02671793
_cell_angle_beta   94.30878276
_cell_angle_gamma   98.57712035
_symmetry_Int_Tables_number   1
_chemical_formula_structural   Li2Y2Sb2P2Se
_chemical_formula_sum   'Li2 Y2 Sb2 P2 Se1'
_cell_volume   218.60539548
_cell_formula_units_Z   1
loop_
 _symmetry_equiv_pos_site_id
 _symmetry_equiv_pos_as_xyz
  1  'x, y, z'
loop_
 _atom_site_type_symbol
 _atom_site_label
 _atom_site_symmetry_multiplicity
 _atom_site_fract_x
 _atom_site_fract_y
 _atom_site_fract_z
 _atom_site_occupancy
  Se  Se0  1  0.12500000  0.00000000  0.25000000  1
  P  P1  1  0.00000000  0.00000000  0.00000000  1
  P  P2  1  0.37500000  0.00000000  0.25000000  1
  Li  Li3  1  0.25000000  0.25000000  0.25000000  1
  Li  Li4  1  0.00000000  0.25000000  0.12500000  1
  Y  Y5  1  0.82450620  0.44661941  0.12172339  1
  Y  Y6  1  0.25109143  0.22773556  0.44887712  1
  Sb  Sb7  1  0.85629124  0.44370439  0.57036127  1
  Sb  Sb8  1  0.42340903  0.71047701  0.64750461  1
