# generated using pymatgen
data_LiY2Cu3P2
_symmetry_space_group_name_H-M   'P 1'
_cell_length_a   4.65273661
_cell_length_b   4.80480089
_cell_length_c   6.76182151
_cell_angle_alpha   95.34462685
_cell_angle_beta   101.32636144
_cell_angle_gamma   110.97617946
_symmetry_Int_Tables_number   1
_chemical_formula_structural   LiY2Cu3P2
_chemical_formula_sum   'Li1 Y2 Cu3 P2'
_cell_volume   136.17366605
_cell_formula_units_Z   1
loop_
 _symmetry_equiv_pos_site_id
 _symmetry_equiv_pos_as_xyz
  1  'x, y, z'
loop_
 _atom_site_type_symbol
 _atom_site_label
 _atom_site_symmetry_multiplicity
 _atom_site_fract_x
 _atom_site_fract_y
 _atom_site_fract_z
 _atom_site_occupancy
  Cu  Cu0  1  0.00000000  0.00000000  0.00000000  1
  Cu  Cu1  1  0.50000000  0.50000000  0.50000000  1
  Cu  Cu2  1  0.25000000  0.25000000  0.25000000  1
  P  P3  1  0.75000000  0.25000000  0.00000000  1
  P  P4  1  0.25000000  0.75000000  0.50000000  1
  Li  Li5  1  0.07041358  0.06555974  0.82879996  1
  Y  Y6  1  0.98303783  0.35835265  0.85569621  1
  Y  Y7  1  0.57577746  0.82183366  0.06626277  1
