# generated using pymatgen
data_LiTiClOF
_symmetry_space_group_name_H-M   'P 1'
_cell_length_a   3.24312962
_cell_length_b   2.77163042
_cell_length_c   5.80830140
_cell_angle_alpha   103.79494074
_cell_angle_beta   102.90610438
_cell_angle_gamma   96.29681647
_symmetry_Int_Tables_number   1
_chemical_formula_structural   LiTiClOF
_chemical_formula_sum   'Li1 Ti1 Cl1 O1 F1'
_cell_volume   48.68491813
_cell_formula_units_Z   1
loop_
 _symmetry_equiv_pos_site_id
 _symmetry_equiv_pos_as_xyz
  1  'x, y, z'
loop_
 _atom_site_type_symbol
 _atom_site_label
 _atom_site_symmetry_multiplicity
 _atom_site_fract_x
 _atom_site_fract_y
 _atom_site_fract_z
 _atom_site_occupancy
  F  F0  1  0.00000000  0.00000000  0.00000000  1
  Li  Li1  1  0.50000000  0.50000000  0.50000000  1
  O  O2  1  0.50000000  0.50000000  0.00000000  1
  Cl  Cl3  1  0.50000000  0.00000000  0.50000000  1
  Ti  Ti4  1  0.00000000  0.50000000  0.50000000  1
