# generated using pymatgen
data_LiY2Te4MoP2
_symmetry_space_group_name_H-M   'P 1'
_cell_length_a   4.70187572
_cell_length_b   4.93006092
_cell_length_c   6.85610347
_cell_angle_alpha   95.13662251
_cell_angle_beta   100.34209266
_cell_angle_gamma   109.30752329
_symmetry_Int_Tables_number   1
_chemical_formula_structural   LiY2Te4MoP2
_chemical_formula_sum   'Li1 Y2 Te4 Mo1 P2'
_cell_volume   145.64309926
_cell_formula_units_Z   1
loop_
 _symmetry_equiv_pos_site_id
 _symmetry_equiv_pos_as_xyz
  1  'x, y, z'
loop_
 _atom_site_type_symbol
 _atom_site_label
 _atom_site_symmetry_multiplicity
 _atom_site_fract_x
 _atom_site_fract_y
 _atom_site_fract_z
 _atom_site_occupancy
  Te  Te0  1  0.00000000  0.00000000  0.00000000  1
  Te  Te1  1  0.50000000  0.50000000  0.50000000  1
  Te  Te2  1  0.50000000  0.50000000  0.00000000  1
  Te  Te3  1  0.50000000  0.00000000  0.50000000  1
  Y  Y4  1  0.00000000  0.50000000  0.50000000  1
  Y  Y5  1  0.54211428  0.57152502  0.93760496  1
  P  P6  1  0.00777907  0.01648437  0.73887162  1
  P  P7  1  0.63172504  0.82756435  0.76427603  1
  Mo  Mo8  1  0.27127425  0.28902425  0.85446392  1
  Li  Li9  1  0.83602713  0.27368997  0.59444052  1
