# generated using pymatgen
data_LiF
_symmetry_space_group_name_H-M   'P 1'
_cell_length_a   11.20729476
_cell_length_b   11.20729476
_cell_length_c   10.62936165
_cell_angle_alpha   90.00000000
_cell_angle_beta   90.00000000
_cell_angle_gamma   120.00000000
_symmetry_Int_Tables_number   1
_chemical_formula_structural   LiF
_chemical_formula_sum   'Li42 F42'
_cell_volume   1156.21714165
_cell_formula_units_Z   42
loop_
 _symmetry_equiv_pos_site_id
 _symmetry_equiv_pos_as_xyz
  1  'x, y, z'
loop_
 _atom_site_type_symbol
 _atom_site_label
 _atom_site_symmetry_multiplicity
 _atom_site_fract_x
 _atom_site_fract_y
 _atom_site_fract_z
 _atom_site_occupancy
  F  F0  1  0.32494176  0.13347902  0.25000000  1
  F  F1  1  0.86652098  0.19146275  0.25000000  1
  F  F2  1  0.80853725  0.67505824  0.25000000  1
  F  F3  1  0.67505824  0.86652098  0.75000000  1
  F  F4  1  0.13347902  0.80853725  0.75000000  1
  F  F5  1  0.19146275  0.32494176  0.75000000  1
  F  F6  1  0.36973641  0.52348890  0.04491536  1
  F  F7  1  0.47651110  0.84624751  0.04491536  1
  F  F8  1  0.15375249  0.63026359  0.04491536  1
  F  F9  1  0.63026359  0.47651110  0.54491536  1
  F  F10  1  0.52348890  0.15375249  0.54491536  1
  F  F11  1  0.84624751  0.36973641  0.54491536  1
  F  F12  1  0.63026359  0.47651110  0.95508464  1
  F  F13  1  0.52348890  0.15375249  0.95508464  1
  F  F14  1  0.84624751  0.36973641  0.95508464  1
  F  F15  1  0.36973641  0.52348890  0.45508464  1
  F  F16  1  0.47651110  0.84624751  0.45508464  1
  F  F17  1  0.15375249  0.63026359  0.45508464  1
  F  F18  1  0.33333333  0.66666667  0.11239655  1
  F  F19  1  0.66666667  0.33333333  0.61239655  1
  F  F20  1  0.66666667  0.33333333  0.88760345  1
  F  F21  1  0.33333333  0.66666667  0.38760345  1
  F  F22  1  0.73381237  0.74073466  0.25000000  1
  F  F23  1  0.25926534  0.99307771  0.25000000  1
  F  F24  1  0.00692229  0.26618763  0.25000000  1
  F  F25  1  0.26618763  0.25926534  0.75000000  1
  F  F26  1  0.74073466  0.00692229  0.75000000  1
  F  F27  1  0.99307771  0.73381237  0.75000000  1
  F  F28  1  0.73585749  0.67607861  0.61139332  1
  F  F29  1  0.32392139  0.05977888  0.61139332  1
  F  F30  1  0.94022112  0.26414251  0.61139332  1
  F  F31  1  0.26414251  0.32392139  0.11139332  1
  F  F32  1  0.67607861  0.94022112  0.11139332  1
  F  F33  1  0.05977888  0.73585749  0.11139332  1
  F  F34  1  0.26414251  0.32392139  0.38860668  1
  F  F35  1  0.67607861  0.94022112  0.38860668  1
  F  F36  1  0.05977888  0.73585749  0.38860668  1
  F  F37  1  0.73585749  0.67607861  0.88860668  1
  F  F38  1  0.32392139  0.05977888  0.88860668  1
  F  F39  1  0.94022112  0.26414251  0.88860668  1
  F  F40  1  0.00000000  0.00000000  0.00000000  1
  F  F41  1  0.00000000  0.00000000  0.50000000  1
  Li  Li42  1  0.66666667  0.33333333  0.25000000  1
  Li  Li43  1  0.33333333  0.66666667  0.75000000  1
  Li  Li44  1  0.33793497  0.40465946  0.92251330  1
  Li  Li45  1  -0.40465946  -0.06672449  0.92251330  1
  Li  Li46  1  0.06672449  -0.33793497  0.92251330  1
  Li  Li47  1  -0.33793497  -0.40465946  1.42251330  1
  Li  Li48  1  0.40465946  0.06672449  1.42251330  1
  Li  Li49  1  -0.06672449  0.33793497  1.42251330  1
  Li  Li50  1  -0.33793497  -0.40465946  -0.92251330  1
  Li  Li51  1  0.40465946  0.06672449  -0.92251330  1
  Li  Li52  1  -0.06672449  0.33793497  -0.92251330  1
  Li  Li53  1  0.33793497  0.40465946  -0.42251330  1
  Li  Li54  1  -0.40465946  -0.06672449  -0.42251330  1
  Li  Li55  1  0.06672449  -0.33793497  -0.42251330  1
  Li  Li56  1  0.39769187  0.56060114  0.25000000  1
  Li  Li57  1  0.43939886  0.83709073  0.25000000  1
  Li  Li58  1  0.16290927  0.60230813  0.25000000  1
  Li  Li59  1  0.60230813  0.43939886  0.75000000  1
  Li  Li60  1  0.56060114  0.16290927  0.75000000  1
  Li  Li61  1  0.83709073  0.39769187  0.75000000  1
  Li  Li62  1  0.00000000  0.00000000  0.25000000  1
  Li  Li63  1  0.00000000  0.00000000  0.75000000  1
  Li  Li64  1  0.88242091  0.61920015  0.09063551  1
  Li  Li65  1  0.38079985  0.26322076  0.09063551  1
  Li  Li66  1  0.73677924  0.11757909  0.09063551  1
  Li  Li67  1  0.11757909  0.38079985  0.59063551  1
  Li  Li68  1  0.61920015  0.73677924  0.59063551  1
  Li  Li69  1  0.26322076  0.88242091  0.59063551  1
  Li  Li70  1  0.11757909  0.38079985  0.90936449  1
  Li  Li71  1  0.61920015  0.73677924  0.90936449  1
  Li  Li72  1  0.26322076  0.88242091  0.90936449  1
  Li  Li73  1  0.88242091  0.61920015  0.40936449  1
  Li  Li74  1  0.38079985  0.26322076  0.40936449  1
  Li  Li75  1  0.73677924  0.11757909  0.40936449  1
  Li  Li76  1  0.50000000  0.00000000  0.00000000  1
  Li  Li77  1  0.00000000  0.50000000  0.00000000  1
  Li  Li78  1  0.50000000  0.50000000  0.00000000  1
  Li  Li79  1  0.50000000  0.00000000  0.50000000  1
  Li  Li80  1  0.00000000  0.50000000  0.50000000  1
  Li  Li81  1  0.50000000  0.50000000  0.50000000  1
  Li  Li82  1  0.33333333  0.66666667  0.25000000  1
  Li  Li83  1  0.66666667  0.33333333  0.75000000  1
