# generated using pymatgen
data_LiF
_symmetry_space_group_name_H-M   'P 1'
_cell_length_a   6.33246473
_cell_length_b   6.33246473
_cell_length_c   28.07182457
_cell_angle_alpha   90.00000000
_cell_angle_beta   90.00000000
_cell_angle_gamma   120.00000000
_symmetry_Int_Tables_number   1
_chemical_formula_structural   LiF
_chemical_formula_sum   'Li29 F29'
_cell_volume   974.87028303
_cell_formula_units_Z   29
loop_
 _symmetry_equiv_pos_site_id
 _symmetry_equiv_pos_as_xyz
  1  'x, y, z'
loop_
 _atom_site_type_symbol
 _atom_site_label
 _atom_site_symmetry_multiplicity
 _atom_site_fract_x
 _atom_site_fract_y
 _atom_site_fract_z
 _atom_site_occupancy
  F  F0  1  0.37175801  0.93029136  0.99142723  1
  F  F1  1  0.06970864  0.44146666  0.99142723  1
  F  F2  1  0.55853334  0.62824199  0.99142723  1
  F  F3  1  0.06970864  0.62824199  0.00857277  1
  F  F4  1  0.55853334  0.93029136  0.00857277  1
  F  F5  1  0.37175801  0.44146666  0.00857277  1
  F  F6  1  0.52666804  0.34155532  0.68108463  1
  F  F7  1  0.65844468  0.18511272  0.68108463  1
  F  F8  1  0.81488728  0.47333196  0.68108463  1
  F  F9  1  0.65844468  0.47333196  0.31891537  1
  F  F10  1  0.81488728  0.34155532  0.31891537  1
  F  F11  1  0.52666804  0.18511272  0.31891537  1
  F  F12  1  0.28186223  0.75636219  0.48856383  1
  F  F13  1  0.24363781  0.52550004  0.48856383  1
  F  F14  1  0.47449996  0.71813777  0.48856383  1
  F  F15  1  0.24363781  0.71813777  0.51143617  1
  F  F16  1  0.47449996  0.75636219  0.51143617  1
  F  F17  1  0.28186223  0.52550004  0.51143617  1
  F  F18  1  0.62698933  0.37301067  0.00000000  1
  F  F19  1  0.62698933  0.25397866  0.00000000  1
  F  F20  1  0.74602134  0.37301067  -0.00000000  1
  F  F21  1  0.00000000  0.00000000  0.94260108  1
  F  F22  1  0.00000000  0.00000000  0.05739892  1
  F  F23  1  0.72538587  0.65000229  0.04467943  1
  F  F24  1  0.34999771  0.07538357  0.04467943  1
  F  F25  1  0.92461643  0.27461413  0.04467943  1
  F  F26  1  0.34999771  0.27461413  0.95532057  1
  F  F27  1  0.92461643  0.65000229  0.95532057  1
  F  F28  1  0.72538587  0.07538357  0.95532057  1
  Li  Li29  1  0.00000000  0.00000000  0.15560205  1
  Li  Li30  1  0.00000000  0.00000000  0.84439795  1
  Li  Li31  1  0.66666667  0.33333333  0.50000000  1
  Li  Li32  1  0.00000000  0.00000000  0.50000000  1
  Li  Li33  1  0.32699664  0.32814226  0.72979278  1
  Li  Li34  1  -0.32814226  -0.00114563  0.72979278  1
  Li  Li35  1  0.00114563  -0.32699664  0.72979278  1
  Li  Li36  1  -0.32814226  -0.32699664  -0.72979278  1
  Li  Li37  1  0.00114563  0.32814226  -0.72979278  1
  Li  Li38  1  0.32699664  -0.00114563  -0.72979278  1
  Li  Li39  1  0.91265903  0.77431637  0.03734114  1
  Li  Li40  1  0.22568363  0.13834266  0.03734114  1
  Li  Li41  1  0.86165734  0.08734097  0.03734114  1
  Li  Li42  1  0.22568363  0.08734097  0.96265886  1
  Li  Li43  1  0.86165734  0.77431637  0.96265886  1
  Li  Li44  1  0.91265903  0.13834266  0.96265886  1
  Li  Li45  1  0.77538584  0.51423170  0.14108903  1
  Li  Li46  1  0.48576830  0.26115414  0.14108903  1
  Li  Li47  1  0.73884586  0.22461416  0.14108903  1
  Li  Li48  1  0.48576830  0.22461416  0.85891097  1
  Li  Li49  1  0.73884586  0.51423170  0.85891097  1
  Li  Li50  1  0.77538584  0.26115414  0.85891097  1
  Li  Li51  1  0.50179747  0.79540472  0.37369181  1
  Li  Li52  1  0.20459528  0.70639276  0.37369181  1
  Li  Li53  1  0.29360724  0.49820253  0.37369181  1
  Li  Li54  1  0.20459528  0.49820253  0.62630819  1
  Li  Li55  1  0.29360724  0.79540472  0.62630819  1
  Li  Li56  1  0.50179747  0.70639276  0.62630819  1
  Li  Li57  1  0.33333333  0.66666667  -0.00000000  1
