# generated using pymatgen
data_Li9CaSeF9
_symmetry_space_group_name_H-M   'P 1'
_cell_length_a   17.25877765
_cell_length_b   8.24936697
_cell_length_c   6.61788147
_cell_angle_alpha   90.00000000
_cell_angle_beta   90.00000000
_cell_angle_gamma   90.00000000
_symmetry_Int_Tables_number   1
_chemical_formula_structural   Li9CaSeF9
_chemical_formula_sum   'Li36 Ca4 Se4 F36'
_cell_volume   942.21419229
_cell_formula_units_Z   4
loop_
 _symmetry_equiv_pos_site_id
 _symmetry_equiv_pos_as_xyz
  1  'x, y, z'
loop_
 _atom_site_type_symbol
 _atom_site_label
 _atom_site_symmetry_multiplicity
 _atom_site_fract_x
 _atom_site_fract_y
 _atom_site_fract_z
 _atom_site_occupancy
  Ca  Ca0  1  0.44850790  0.25000000  0.94357795  1
  Ca  Ca1  1  0.05149210  0.75000000  0.44357795  1
  Ca  Ca2  1  0.55149210  0.75000000  0.05642205  1
  Ca  Ca3  1  0.94850790  0.25000000  0.55642205  1
  F  F4  1  0.20638381  0.90365096  0.91802151  1
  F  F5  1  0.29361619  -0.90365096  1.41802151  1
  F  F6  1  -0.20638381  1.40365096  -0.91802151  1
  F  F7  1  0.70638381  -0.40365096  -0.41802151  1
  F  F8  1  -0.20638381  -0.90365096  -0.91802151  1
  F  F9  1  0.70638381  0.90365096  -0.41802151  1
  F  F10  1  0.20638381  -0.40365096  0.91802151  1
  F  F11  1  0.29361619  1.40365096  1.41802151  1
  F  F12  1  0.99201284  0.57212596  0.33650740  1
  F  F13  1  0.50798716  0.42787404  0.83650740  1
  F  F14  1  0.00798716  0.07212596  0.66349260  1
  F  F15  1  0.49201284  0.92787404  0.16349260  1
  F  F16  1  0.00798716  0.42787404  0.66349260  1
  F  F17  1  0.49201284  0.57212596  0.16349260  1
  F  F18  1  0.99201284  0.92787404  0.33650740  1
  F  F19  1  0.50798716  0.07212596  0.83650740  1
  F  F20  1  0.57784329  0.25000000  0.38376001  1
  F  F21  1  0.92215671  0.75000000  0.88376001  1
  F  F22  1  0.42215671  0.75000000  0.61623999  1
  F  F23  1  0.07784329  0.25000000  0.11623999  1
  F  F24  1  0.42535704  0.30232542  0.67686201  1
  F  F25  1  0.07464296  0.69767458  0.17686201  1
  F  F26  1  0.57464296  0.80232542  0.32313799  1
  F  F27  1  0.92535704  0.19767458  0.82313799  1
  F  F28  1  0.57464296  0.69767458  0.32313799  1
  F  F29  1  0.92535704  0.30232542  0.82313799  1
  F  F30  1  0.42535704  0.19767458  0.67686201  1
  F  F31  1  0.07464296  0.80232542  0.17686201  1
  F  F32  1  0.00000000  0.00000000  0.50000000  1
  F  F33  1  0.50000000  0.00000000  0.00000000  1
  F  F34  1  0.00000000  0.50000000  0.50000000  1
  F  F35  1  0.50000000  0.50000000  0.00000000  1
  F  F36  1  0.66731402  0.25000000  0.06895867  1
  F  F37  1  0.83268598  0.75000000  0.56895867  1
  F  F38  1  0.33268598  0.75000000  0.93104133  1
  F  F39  1  0.16731402  0.25000000  0.43104133  1
  Li  Li40  1  0.62776560  0.37082816  0.08838208  1
  Li  Li41  1  0.87223440  0.62917184  0.58838208  1
  Li  Li42  1  0.37223440  0.87082816  0.91161792  1
  Li  Li43  1  0.12776560  0.12917184  0.41161792  1
  Li  Li44  1  0.37223440  0.62917184  0.91161792  1
  Li  Li45  1  0.12776560  0.37082816  0.41161792  1
  Li  Li46  1  0.62776560  0.12917184  0.08838208  1
  Li  Li47  1  0.87223440  0.87082816  0.58838208  1
  Li  Li48  1  0.35317220  0.48861666  0.68169718  1
  Li  Li49  1  0.14682780  0.51138334  0.18169718  1
  Li  Li50  1  0.64682780  0.98861666  0.31830282  1
  Li  Li51  1  0.85317220  0.01138334  0.81830282  1
  Li  Li52  1  0.64682780  0.51138334  0.31830282  1
  Li  Li53  1  0.85317220  0.48861666  0.81830282  1
  Li  Li54  1  0.35317220  0.01138334  0.68169718  1
  Li  Li55  1  0.14682780  0.98861666  0.18169718  1
  Li  Li56  1  0.66054110  0.98613454  0.96733007  1
  Li  Li57  1  0.83945890  0.01386546  0.46733007  1
  Li  Li58  1  0.33945890  0.48613454  0.03266993  1
  Li  Li59  1  0.16054110  0.51386546  0.53266993  1
  Li  Li60  1  0.33945890  0.01386546  0.03266993  1
  Li  Li61  1  0.16054110  0.98613454  0.53266993  1
  Li  Li62  1  0.66054110  0.51386546  0.96733007  1
  Li  Li63  1  0.83945890  0.48613454  0.46733007  1
  Li  Li64  1  0.24609629  0.25000000  0.15246298  1
  Li  Li65  1  0.25390371  0.75000000  0.65246298  1
  Li  Li66  1  0.75390371  0.75000000  0.84753702  1
  Li  Li67  1  0.74609629  0.25000000  0.34753702  1
  Li  Li68  1  0.11240660  0.84179447  0.98339293  1
  Li  Li69  1  0.38759340  0.15820553  0.48339293  1
  Li  Li70  1  0.88759340  0.34179447  0.01660707  1
  Li  Li71  1  0.61240660  0.65820553  0.51660707  1
  Li  Li72  1  0.88759340  0.15820553  0.01660707  1
  Li  Li73  1  0.61240660  0.84179447  0.51660707  1
  Li  Li74  1  0.11240660  0.65820553  0.98339293  1
  Li  Li75  1  0.38759340  0.34179447  0.48339293  1
  Se  Se76  1  0.00000000  0.00000000  0.00000000  1
  Se  Se77  1  0.50000000  0.00000000  0.50000000  1
  Se  Se78  1  0.00000000  0.50000000  0.00000000  1
  Se  Se79  1  0.50000000  0.50000000  0.50000000  1
