# generated using pymatgen
data_Li4TeF2
_symmetry_space_group_name_H-M   'P 1'
_cell_length_a   14.84874658
_cell_length_b   14.84874658
_cell_length_c   16.61135212
_cell_angle_alpha   90.00000000
_cell_angle_beta   90.00000000
_cell_angle_gamma   120.00000000
_symmetry_Int_Tables_number   1
_chemical_formula_structural   Li4TeF2
_chemical_formula_sum   'Li96 Te24 F48'
_cell_volume   3171.86873729
_cell_formula_units_Z   24
loop_
 _symmetry_equiv_pos_site_id
 _symmetry_equiv_pos_as_xyz
  1  'x, y, z'
loop_
 _atom_site_type_symbol
 _atom_site_label
 _atom_site_symmetry_multiplicity
 _atom_site_fract_x
 _atom_site_fract_y
 _atom_site_fract_z
 _atom_site_occupancy
  F  F0  1  0.98592911  0.39234137  0.70783999  1
  F  F1  1  -0.39234137  0.59358775  0.70783999  1
  F  F2  1  -0.59358775  -0.98592911  0.70783999  1
  F  F3  1  0.39234137  0.98592911  -0.20783999  1
  F  F4  1  0.59358775  -0.39234137  -0.20783999  1
  F  F5  1  -0.98592911  -0.59358775  -0.20783999  1
  F  F6  1  -0.98592911  -0.39234137  -0.70783999  1
  F  F7  1  0.39234137  -0.59358775  -0.70783999  1
  F  F8  1  0.59358775  0.98592911  -0.70783999  1
  F  F9  1  -0.39234137  -0.98592911  1.20783999  1
  F  F10  1  -0.59358775  0.39234137  1.20783999  1
  F  F11  1  0.98592911  0.59358775  1.20783999  1
  F  F12  1  1.65259578  0.72567470  1.04117332  1
  F  F13  1  0.27432530  0.92692108  1.04117332  1
  F  F14  1  0.07307892  -0.65259578  1.04117332  1
  F  F15  1  1.05900804  1.31926245  0.12549334  1
  F  F16  1  1.26025441  -0.05900804  0.12549334  1
  F  F17  1  -0.31926245  -0.26025441  0.12549334  1
  F  F18  1  -0.31926245  -0.05900804  -0.37450666  1
  F  F19  1  1.05900804  -0.26025441  -0.37450666  1
  F  F20  1  1.26025441  1.31926245  -0.37450666  1
  F  F21  1  0.27432530  -0.65259578  1.54117332  1
  F  F22  1  0.07307892  0.72567470  1.54117332  1
  F  F23  1  1.65259578  0.92692108  1.54117332  1
  F  F24  1  1.31926245  1.05900804  1.37450666  1
  F  F25  1  -0.05900804  1.26025441  1.37450666  1
  F  F26  1  -0.26025441  -0.31926245  1.37450666  1
  F  F27  1  0.72567470  1.65259578  0.45882668  1
  F  F28  1  0.92692108  0.27432530  0.45882668  1
  F  F29  1  -0.65259578  0.07307892  0.45882668  1
  F  F30  1  -0.65259578  0.27432530  -0.04117332  1
  F  F31  1  0.72567470  0.07307892  -0.04117332  1
  F  F32  1  0.92692108  1.65259578  -0.04117332  1
  F  F33  1  -0.05900804  -0.31926245  1.87450666  1
  F  F34  1  -0.26025441  1.05900804  1.87450666  1
  F  F35  1  1.31926245  1.26025441  1.87450666  1
  F  F36  1  0.00000000  0.00000000  0.36261289  1
  F  F37  1  0.00000000  0.00000000  0.13738711  1
  F  F38  1  0.00000000  0.00000000  0.63738711  1
  F  F39  1  0.00000000  0.00000000  0.86261289  1
  F  F40  1  0.66666667  0.33333333  0.69594622  1
  F  F41  1  0.66666667  0.33333333  0.47072045  1
  F  F42  1  0.66666667  0.33333333  0.97072045  1
  F  F43  1  0.66666667  0.33333333  0.19594622  1
  F  F44  1  0.33333333  0.66666667  0.02927955  1
  F  F45  1  0.33333333  0.66666667  0.80405378  1
  F  F46  1  0.33333333  0.66666667  0.30405378  1
  F  F47  1  0.33333333  0.66666667  0.52927955  1
  Li  Li48  1  0.50000000  0.00000000  0.00000000  1
  Li  Li49  1  0.00000000  0.50000000  0.00000000  1
  Li  Li50  1  0.50000000  0.50000000  0.00000000  1
  Li  Li51  1  0.00000000  0.50000000  0.50000000  1
  Li  Li52  1  0.50000000  0.00000000  0.50000000  1
  Li  Li53  1  0.50000000  0.50000000  0.50000000  1
  Li  Li54  1  0.16666667  0.33333333  0.33333333  1
  Li  Li55  1  0.66666667  0.83333333  0.33333333  1
  Li  Li56  1  0.16666667  0.83333333  0.33333333  1
  Li  Li57  1  0.66666667  0.83333333  0.83333333  1
  Li  Li58  1  0.16666667  0.33333333  0.83333333  1
  Li  Li59  1  0.16666667  0.83333333  0.83333333  1
  Li  Li60  1  0.83333333  0.66666667  0.66666667  1
  Li  Li61  1  0.33333333  0.16666667  0.66666667  1
  Li  Li62  1  0.83333333  0.16666667  0.66666667  1
  Li  Li63  1  0.33333333  0.16666667  0.16666667  1
  Li  Li64  1  0.83333333  0.66666667  0.16666667  1
  Li  Li65  1  0.83333333  0.16666667  0.16666667  1
  Li  Li66  1  0.77562418  0.34770977  0.35163090  1
  Li  Li67  1  0.65229023  0.42791441  0.35163090  1
  Li  Li68  1  0.57208559  0.22437582  0.35163090  1
  Li  Li69  1  0.34770977  0.77562418  0.14836910  1
  Li  Li70  1  0.42791441  0.65229023  0.14836910  1
  Li  Li71  1  0.22437582  0.57208559  0.14836910  1
  Li  Li72  1  0.22437582  0.65229023  0.64836910  1
  Li  Li73  1  0.34770977  0.57208559  0.64836910  1
  Li  Li74  1  0.42791441  0.77562418  0.64836910  1
  Li  Li75  1  0.65229023  0.22437582  0.85163090  1
  Li  Li76  1  0.57208559  0.34770977  0.85163090  1
  Li  Li77  1  0.77562418  0.42791441  0.85163090  1
  Li  Li78  1  0.44229085  0.68104310  0.68496424  1
  Li  Li79  1  0.31895690  0.76124775  0.68496424  1
  Li  Li80  1  0.23875225  0.55770915  0.68496424  1
  Li  Li81  1  0.01437643  0.10895751  0.48170243  1
  Li  Li82  1  0.09458108  0.98562357  0.48170243  1
  Li  Li83  1  0.89104249  0.90541892  0.48170243  1
  Li  Li84  1  0.89104249  0.98562357  0.98170243  1
  Li  Li85  1  0.01437643  0.90541892  0.98170243  1
  Li  Li86  1  0.09458108  0.10895751  0.98170243  1
  Li  Li87  1  0.31895690  0.55770915  0.18496424  1
  Li  Li88  1  0.23875225  0.68104310  0.18496424  1
  Li  Li89  1  0.44229085  0.76124775  0.18496424  1
  Li  Li90  1  0.10895751  0.01437643  0.01829757  1
  Li  Li91  1  0.98562357  0.09458108  0.01829757  1
  Li  Li92  1  0.90541892  0.89104249  0.01829757  1
  Li  Li93  1  0.68104310  0.44229085  0.81503576  1
  Li  Li94  1  0.76124775  0.31895690  0.81503576  1
  Li  Li95  1  0.55770915  0.23875225  0.81503576  1
  Li  Li96  1  0.55770915  0.31895690  0.31503576  1
  Li  Li97  1  0.68104310  0.23875225  0.31503576  1
  Li  Li98  1  0.76124775  0.44229085  0.31503576  1
  Li  Li99  1  0.98562357  0.89104249  0.51829757  1
  Li  Li100  1  0.90541892  0.01437643  0.51829757  1
  Li  Li101  1  0.10895751  0.09458108  0.51829757  1
  Li  Li102  1  0.09001317  0.94929213  0.59767915  1
  Li  Li103  1  0.05070787  0.14072103  0.59767915  1
  Li  Li104  1  0.85927897  0.90998683  0.59767915  1
  Li  Li105  1  0.94929213  0.09001317  0.90232085  1
  Li  Li106  1  0.14072103  0.05070787  0.90232085  1
  Li  Li107  1  0.90998683  0.85927897  0.90232085  1
  Li  Li108  1  0.90998683  0.05070787  0.40232085  1
  Li  Li109  1  0.94929213  0.85927897  0.40232085  1
  Li  Li110  1  0.14072103  0.09001317  0.40232085  1
  Li  Li111  1  0.05070787  0.90998683  0.09767915  1
  Li  Li112  1  0.85927897  0.94929213  0.09767915  1
  Li  Li113  1  0.09001317  0.14072103  0.09767915  1
  Li  Li114  1  0.75667983  0.28262547  0.93101248  1
  Li  Li115  1  0.71737453  0.47405437  0.93101248  1
  Li  Li116  1  0.52594563  0.24332017  0.93101248  1
  Li  Li117  1  0.61595880  0.42334650  0.23565418  1
  Li  Li118  1  0.80738770  0.38404120  0.23565418  1
  Li  Li119  1  0.57665350  0.19261230  0.23565418  1
  Li  Li120  1  0.57665350  0.38404120  0.73565418  1
  Li  Li121  1  0.61595880  0.19261230  0.73565418  1
  Li  Li122  1  0.80738770  0.42334650  0.73565418  1
  Li  Li123  1  0.71737453  0.24332017  0.43101248  1
  Li  Li124  1  0.52594563  0.28262547  0.43101248  1
  Li  Li125  1  0.75667983  0.47405437  0.43101248  1
  Li  Li126  1  0.42334650  0.61595880  0.26434582  1
  Li  Li127  1  0.38404120  0.80738770  0.26434582  1
  Li  Li128  1  0.19261230  0.57665350  0.26434582  1
  Li  Li129  1  0.28262547  0.75667983  0.56898752  1
  Li  Li130  1  0.47405437  0.71737453  0.56898752  1
  Li  Li131  1  0.24332017  0.52594563  0.56898752  1
  Li  Li132  1  0.24332017  0.71737453  0.06898752  1
  Li  Li133  1  0.28262547  0.52594563  0.06898752  1
  Li  Li134  1  0.47405437  0.75667983  0.06898752  1
  Li  Li135  1  0.38404120  0.57665350  0.76434582  1
  Li  Li136  1  0.19261230  0.61595880  0.76434582  1
  Li  Li137  1  0.42334650  0.80738770  0.76434582  1
  Li  Li138  1  0.00000000  0.00000000  0.00000000  1
  Li  Li139  1  0.00000000  0.00000000  0.50000000  1
  Li  Li140  1  0.66666667  0.33333333  0.33333333  1
  Li  Li141  1  0.66666667  0.33333333  0.83333333  1
  Li  Li142  1  0.33333333  0.66666667  0.66666667  1
  Li  Li143  1  0.33333333  0.66666667  0.16666667  1
  Te  Te144  1  0.19924567  0.00000000  0.25000000  1
  Te  Te145  1  0.00000000  0.19924567  0.25000000  1
  Te  Te146  1  0.80075433  0.80075433  0.25000000  1
  Te  Te147  1  0.80075433  0.00000000  0.75000000  1
  Te  Te148  1  0.00000000  0.80075433  0.75000000  1
  Te  Te149  1  0.19924567  0.19924567  0.75000000  1
  Te  Te150  1  0.86591234  0.33333333  0.58333333  1
  Te  Te151  1  0.66666667  0.53257900  0.58333333  1
  Te  Te152  1  0.46742100  0.13408766  0.58333333  1
  Te  Te153  1  0.46742100  0.33333333  0.08333333  1
  Te  Te154  1  0.66666667  0.13408766  0.08333333  1
  Te  Te155  1  0.86591234  0.53257900  0.08333333  1
  Te  Te156  1  0.53257900  0.66666667  0.91666667  1
  Te  Te157  1  0.33333333  0.86591234  0.91666667  1
  Te  Te158  1  0.13408766  0.46742100  0.91666667  1
  Te  Te159  1  0.13408766  0.66666667  0.41666667  1
  Te  Te160  1  0.33333333  0.46742100  0.41666667  1
  Te  Te161  1  0.53257900  0.86591234  0.41666667  1
  Te  Te162  1  0.00000000  0.00000000  0.25000000  1
  Te  Te163  1  0.00000000  0.00000000  0.75000000  1
  Te  Te164  1  0.66666667  0.33333333  0.58333333  1
  Te  Te165  1  0.66666667  0.33333333  0.08333333  1
  Te  Te166  1  0.33333333  0.66666667  0.91666667  1
  Te  Te167  1  0.33333333  0.66666667  0.41666667  1
