# generated using pymatgen
data_LiF
_symmetry_space_group_name_H-M   'P 1'
_cell_length_a   10.31877761
_cell_length_b   10.31877761
_cell_length_c   10.31877761
_cell_angle_alpha   90.00000000
_cell_angle_beta   90.00000000
_cell_angle_gamma   90.00000000
_symmetry_Int_Tables_number   1
_chemical_formula_structural   LiF
_chemical_formula_sum   'Li48 F48'
_cell_volume   1098.71425215
_cell_formula_units_Z   48
loop_
 _symmetry_equiv_pos_site_id
 _symmetry_equiv_pos_as_xyz
  1  'x, y, z'
loop_
 _atom_site_type_symbol
 _atom_site_label
 _atom_site_symmetry_multiplicity
 _atom_site_fract_x
 _atom_site_fract_y
 _atom_site_fract_z
 _atom_site_occupancy
  F  F0  1  0.02735103  0.29768739  0.31122012  1
  F  F1  1  0.47264897  -0.29768739  0.81122012  1
  F  F2  1  -0.02735103  0.79768739  0.18877988  1
  F  F3  1  0.52735103  0.20231261  -0.31122012  1
  F  F4  1  0.31122012  0.02735103  0.29768739  1
  F  F5  1  0.81122012  0.47264897  -0.29768739  1
  F  F6  1  0.18877988  -0.02735103  0.79768739  1
  F  F7  1  -0.31122012  0.52735103  0.20231261  1
  F  F8  1  0.29768739  0.31122012  0.02735103  1
  F  F9  1  -0.29768739  0.81122012  0.47264897  1
  F  F10  1  0.79768739  0.18877988  -0.02735103  1
  F  F11  1  0.20231261  -0.31122012  0.52735103  1
  F  F12  1  1.04768739  0.27735103  -0.06122012  1
  F  F13  1  0.45231261  0.72264897  0.43877988  1
  F  F14  1  0.54768739  0.22264897  1.06122012  1
  F  F15  1  -0.04768739  0.77735103  0.56122012  1
  F  F16  1  0.77735103  0.56122012  -0.04768739  1
  F  F17  1  0.22264897  1.06122012  0.54768739  1
  F  F18  1  0.72264897  0.43877988  0.45231261  1
  F  F19  1  0.27735103  -0.06122012  1.04768739  1
  F  F20  1  1.06122012  0.54768739  0.22264897  1
  F  F21  1  0.56122012  -0.04768739  0.77735103  1
  F  F22  1  -0.06122012  1.04768739  0.27735103  1
  F  F23  1  0.43877988  0.45231261  0.72264897  1
  F  F24  1  0.52735103  0.79768739  0.81122012  1
  F  F25  1  0.97264897  0.20231261  1.31122012  1
  F  F26  1  0.47264897  1.29768739  0.68877988  1
  F  F27  1  1.02735103  0.70231261  0.18877988  1
  F  F28  1  0.81122012  0.52735103  0.79768739  1
  F  F29  1  1.31122012  0.97264897  0.20231261  1
  F  F30  1  0.68877988  0.47264897  1.29768739  1
  F  F31  1  0.18877988  1.02735103  0.70231261  1
  F  F32  1  0.79768739  0.81122012  0.52735103  1
  F  F33  1  0.20231261  1.31122012  0.97264897  1
  F  F34  1  1.29768739  0.68877988  0.47264897  1
  F  F35  1  0.70231261  0.18877988  1.02735103  1
  F  F36  1  1.54768739  0.77735103  0.43877988  1
  F  F37  1  0.95231261  1.22264897  0.93877988  1
  F  F38  1  1.04768739  0.72264897  1.56122012  1
  F  F39  1  0.45231261  1.27735103  1.06122012  1
  F  F40  1  1.27735103  1.06122012  0.45231261  1
  F  F41  1  0.72264897  1.56122012  1.04768739  1
  F  F42  1  1.22264897  0.93877988  0.95231261  1
  F  F43  1  0.77735103  0.43877988  1.54768739  1
  F  F44  1  1.56122012  1.04768739  0.72264897  1
  F  F45  1  1.06122012  0.45231261  1.27735103  1
  F  F46  1  0.43877988  1.54768739  0.77735103  1
  F  F47  1  0.93877988  0.95231261  1.22264897  1
  Li  Li48  1  0.57850065  0.33021868  0.30437121  1
  Li  Li49  1  0.92149935  0.66978132  0.80437121  1
  Li  Li50  1  0.42149935  0.83021868  0.19562879  1
  Li  Li51  1  0.07850065  0.16978132  0.69562879  1
  Li  Li52  1  0.30437121  0.57850065  0.33021868  1
  Li  Li53  1  0.80437121  0.92149935  0.66978132  1
  Li  Li54  1  0.19562879  0.42149935  0.83021868  1
  Li  Li55  1  0.69562879  0.07850065  0.16978132  1
  Li  Li56  1  0.33021868  0.30437121  0.57850065  1
  Li  Li57  1  0.66978132  0.80437121  0.92149935  1
  Li  Li58  1  0.83021868  0.19562879  0.42149935  1
  Li  Li59  1  0.16978132  0.69562879  0.07850065  1
  Li  Li60  1  0.08021868  0.82850065  0.94562879  1
  Li  Li61  1  0.41978132  0.17149935  0.44562879  1
  Li  Li62  1  0.58021868  0.67149935  0.05437121  1
  Li  Li63  1  0.91978132  0.32850065  0.55437121  1
  Li  Li64  1  0.32850065  0.55437121  0.91978132  1
  Li  Li65  1  0.67149935  0.05437121  0.58021868  1
  Li  Li66  1  0.17149935  0.44562879  0.41978132  1
  Li  Li67  1  0.82850065  0.94562879  0.08021868  1
  Li  Li68  1  0.05437121  0.58021868  0.67149935  1
  Li  Li69  1  0.55437121  0.91978132  0.32850065  1
  Li  Li70  1  0.94562879  0.08021868  0.82850065  1
  Li  Li71  1  0.44562879  0.41978132  0.17149935  1
  Li  Li72  1  0.07850065  0.83021868  0.80437121  1
  Li  Li73  1  0.42149935  0.16978132  0.30437121  1
  Li  Li74  1  0.92149935  0.33021868  0.69562879  1
  Li  Li75  1  0.57850065  0.66978132  0.19562879  1
  Li  Li76  1  0.80437121  0.07850065  0.83021868  1
  Li  Li77  1  0.30437121  0.42149935  0.16978132  1
  Li  Li78  1  0.69562879  0.92149935  0.33021868  1
  Li  Li79  1  0.19562879  0.57850065  0.66978132  1
  Li  Li80  1  0.83021868  0.80437121  0.07850065  1
  Li  Li81  1  0.16978132  0.30437121  0.42149935  1
  Li  Li82  1  0.33021868  0.69562879  0.92149935  1
  Li  Li83  1  0.66978132  0.19562879  0.57850065  1
  Li  Li84  1  0.58021868  0.32850065  0.44562879  1
  Li  Li85  1  0.91978132  0.67149935  0.94562879  1
  Li  Li86  1  0.08021868  0.17149935  0.55437121  1
  Li  Li87  1  0.41978132  0.82850065  0.05437121  1
  Li  Li88  1  0.82850065  0.05437121  0.41978132  1
  Li  Li89  1  0.17149935  0.55437121  0.08021868  1
  Li  Li90  1  0.67149935  0.94562879  0.91978132  1
  Li  Li91  1  0.32850065  0.44562879  0.58021868  1
  Li  Li92  1  0.55437121  0.08021868  0.17149935  1
  Li  Li93  1  0.05437121  0.41978132  0.82850065  1
  Li  Li94  1  0.44562879  0.58021868  0.32850065  1
  Li  Li95  1  0.94562879  0.91978132  0.67149935  1
