# generated using pymatgen
data_LiCaF3
_symmetry_space_group_name_H-M   'P 1'
_cell_length_a   19.56308851
_cell_length_b   19.56308851
_cell_length_c   4.90534977
_cell_angle_alpha   90.00000000
_cell_angle_beta   90.00000000
_cell_angle_gamma   120.00000000
_symmetry_Int_Tables_number   1
_chemical_formula_structural   LiCaF3
_chemical_formula_sum   'Li18 Ca18 F54'
_cell_volume   1625.83119218
_cell_formula_units_Z   18
loop_
 _symmetry_equiv_pos_site_id
 _symmetry_equiv_pos_as_xyz
  1  'x, y, z'
loop_
 _atom_site_type_symbol
 _atom_site_label
 _atom_site_symmetry_multiplicity
 _atom_site_fract_x
 _atom_site_fract_y
 _atom_site_fract_z
 _atom_site_occupancy
  Ca  Ca0  1  0.14494011  0.79151171  0.69731032  1
  Ca  Ca1  1  -0.79151171  -0.64657159  0.69731032  1
  Ca  Ca2  1  0.64657159  -0.14494011  0.69731032  1
  Ca  Ca3  1  -0.79151171  -0.14494011  -0.69731032  1
  Ca  Ca4  1  0.64657159  0.79151171  -0.69731032  1
  Ca  Ca5  1  0.14494011  -0.64657159  -0.69731032  1
  Ca  Ca6  1  0.20870804  0.13580196  0.69578913  1
  Ca  Ca7  1  0.86419804  0.07290609  0.69578913  1
  Ca  Ca8  1  0.92709391  0.79129196  0.69578913  1
  Ca  Ca9  1  0.86419804  0.79129196  0.30421087  1
  Ca  Ca10  1  0.92709391  0.13580196  0.30421087  1
  Ca  Ca11  1  0.20870804  0.07290609  0.30421087  1
  Ca  Ca12  1  0.66666667  0.33333333  0.50000000  1
  Ca  Ca13  1  0.33333333  0.66666667  0.00000000  1
  Ca  Ca14  1  0.77891504  0.22108496  0.50000000  1
  Ca  Ca15  1  0.77891504  0.55783009  0.50000000  1
  Ca  Ca16  1  0.44216991  0.22108496  0.50000000  1
  Ca  Ca17  1  0.33333333  0.66666667  0.50000000  1
  F  F18  1  0.51547415  0.12635750  0.81357503  1
  F  F19  1  0.87364250  0.38911665  0.81357503  1
  F  F20  1  0.61088335  0.48452585  0.81357503  1
  F  F21  1  0.87364250  0.48452585  0.18642497  1
  F  F22  1  0.61088335  0.12635750  0.18642497  1
  F  F23  1  0.51547415  0.38911665  0.18642497  1
  F  F24  1  0.80752638  0.32736618  0.03349257  1
  F  F25  1  0.67263382  0.48016020  0.03349257  1
  F  F26  1  0.51983980  0.19247362  0.03349257  1
  F  F27  1  0.67263382  0.19247362  0.96650743  1
  F  F28  1  0.51983980  0.32736618  0.96650743  1
  F  F29  1  0.80752638  0.48016020  0.96650743  1
  F  F30  1  0.00000000  0.00000000  0.69179088  1
  F  F31  1  0.00000000  0.00000000  0.30820912  1
  F  F32  1  0.27926813  0.37165371  0.53225363  1
  F  F33  1  0.62834629  0.90761442  0.53225363  1
  F  F34  1  0.09238558  0.72073187  0.53225363  1
  F  F35  1  0.62834629  0.72073187  0.46774637  1
  F  F36  1  0.09238558  0.37165371  0.46774637  1
  F  F37  1  0.27926813  0.90761442  0.46774637  1
  F  F38  1  0.20297505  0.87301080  0.91580893  1
  F  F39  1  0.12698920  0.32996425  0.91580893  1
  F  F40  1  0.67003575  0.79702495  0.91580893  1
  F  F41  1  0.12698920  0.79702495  0.08419107  1
  F  F42  1  0.67003575  0.87301080  0.08419107  1
  F  F43  1  0.20297505  0.32996425  0.08419107  1
  F  F44  1  0.37630339  0.19722304  0.23269800  1
  F  F45  1  0.80277696  0.17908035  0.23269800  1
  F  F46  1  0.82091965  0.62369661  0.23269800  1
  F  F47  1  0.80277696  0.62369661  0.76730200  1
  F  F48  1  0.82091965  0.19722304  0.76730200  1
  F  F49  1  0.37630339  0.17908035  0.76730200  1
  F  F50  1  0.34564780  0.03196248  0.81222181  1
  F  F51  1  0.96803752  0.31368532  0.81222181  1
  F  F52  1  0.68631468  0.65435220  0.81222181  1
  F  F53  1  0.96803752  0.65435220  0.18777819  1
  F  F54  1  0.68631468  0.03196248  0.18777819  1
  F  F55  1  0.34564780  0.31368532  0.18777819  1
  F  F56  1  0.66666667  0.33333333  0.00000000  1
  F  F57  1  0.89037406  0.16779949  0.73210727  1
  F  F58  1  0.83220051  0.72257457  0.73210727  1
  F  F59  1  0.27742543  0.10962594  0.73210727  1
  F  F60  1  0.83220051  0.10962594  0.26789273  1
  F  F61  1  0.27742543  0.16779949  0.26789273  1
  F  F62  1  0.89037406  0.72257457  0.26789273  1
  F  F63  1  0.09102556  0.22777344  0.87400141  1
  F  F64  1  0.77222656  0.86325212  0.87400141  1
  F  F65  1  0.13674788  0.90897444  0.87400141  1
  F  F66  1  0.77222656  0.90897444  0.12599859  1
  F  F67  1  0.13674788  0.22777344  0.12599859  1
  F  F68  1  0.09102556  0.86325212  0.12599859  1
  F  F69  1  0.59720475  0.40279525  0.00000000  1
  F  F70  1  0.59720475  0.19440950  0.00000000  1
  F  F71  1  0.80559050  0.40279525  0.00000000  1
  Li  Li72  1  0.05752817  0.05735981  0.70320469  1
  Li  Li73  1  0.94264019  0.00016836  0.70320469  1
  Li  Li74  1  0.99983164  0.94247183  0.70320469  1
  Li  Li75  1  0.94264019  0.94247183  0.29679531  1
  Li  Li76  1  0.99983164  0.05735981  0.29679531  1
  Li  Li77  1  0.05752817  0.00016836  0.29679531  1
  Li  Li78  1  0.64077479  0.06720524  0.86370590  1
  Li  Li79  1  0.93279476  0.57356954  0.86370590  1
  Li  Li80  1  0.42643046  0.35922521  0.86370590  1
  Li  Li81  1  0.93279476  0.35922521  0.13629410  1
  Li  Li82  1  0.42643046  0.06720524  0.13629410  1
  Li  Li83  1  0.64077479  0.57356954  0.13629410  1
  Li  Li84  1  0.06024814  0.78313212  0.50932077  1
  Li  Li85  1  0.21686788  0.27711602  0.50932077  1
  Li  Li86  1  0.72288398  0.93975186  0.50932077  1
  Li  Li87  1  0.21686788  0.93975186  0.49067923  1
  Li  Li88  1  0.72288398  0.78313212  0.49067923  1
  Li  Li89  1  0.06024814  0.27711602  0.49067923  1
