# generated using pymatgen
data_LiF
_symmetry_space_group_name_H-M   'P 1'
_cell_length_a   13.86347430
_cell_length_b   13.86347430
_cell_length_c   8.53498856
_cell_angle_alpha   90.00000000
_cell_angle_beta   90.00000000
_cell_angle_gamma   120.00000000
_symmetry_Int_Tables_number   1
_chemical_formula_structural   LiF
_chemical_formula_sum   'Li48 F48'
_cell_volume   1420.61939239
_cell_formula_units_Z   48
loop_
 _symmetry_equiv_pos_site_id
 _symmetry_equiv_pos_as_xyz
  1  'x, y, z'
loop_
 _atom_site_type_symbol
 _atom_site_label
 _atom_site_symmetry_multiplicity
 _atom_site_fract_x
 _atom_site_fract_y
 _atom_site_fract_z
 _atom_site_occupancy
  F  F0  1  0.94423370  0.54620384  0.25000000  1
  F  F1  1  0.45379616  0.39802986  0.25000000  1
  F  F2  1  0.60197014  0.05576630  0.25000000  1
  F  F3  1  0.05576630  0.45379616  0.75000000  1
  F  F4  1  0.54620384  0.60197014  0.75000000  1
  F  F5  1  0.39802986  0.94423370  0.75000000  1
  F  F6  1  0.37473331  0.63037258  0.39471929  1
  F  F7  1  0.36962742  0.74436073  0.39471929  1
  F  F8  1  0.25563927  0.62526669  0.39471929  1
  F  F9  1  0.62526669  0.36962742  0.89471929  1
  F  F10  1  0.63037258  0.25563927  0.89471929  1
  F  F11  1  0.74436073  0.37473331  0.89471929  1
  F  F12  1  0.62526669  0.36962742  0.60528071  1
  F  F13  1  0.63037258  0.25563927  0.60528071  1
  F  F14  1  0.74436073  0.37473331  0.60528071  1
  F  F15  1  0.37473331  0.63037258  0.10528071  1
  F  F16  1  0.36962742  0.74436073  0.10528071  1
  F  F17  1  0.25563927  0.62526669  0.10528071  1
  F  F18  1  0.14306013  0.36590551  0.11422595  1
  F  F19  1  0.63409449  0.77715463  0.11422595  1
  F  F20  1  0.22284537  0.85693987  0.11422595  1
  F  F21  1  0.85693987  0.63409449  0.61422595  1
  F  F22  1  0.36590551  0.22284537  0.61422595  1
  F  F23  1  0.77715463  0.14306013  0.61422595  1
  F  F24  1  0.85693987  0.63409449  0.88577405  1
  F  F25  1  0.36590551  0.22284537  0.88577405  1
  F  F26  1  0.77715463  0.14306013  0.88577405  1
  F  F27  1  0.14306013  0.36590551  0.38577405  1
  F  F28  1  0.63409449  0.77715463  0.38577405  1
  F  F29  1  0.22284537  0.85693987  0.38577405  1
  F  F30  1  0.52175582  0.00369877  0.93501204  1
  F  F31  1  0.99630123  0.51805705  0.93501204  1
  F  F32  1  0.48194295  0.47824418  0.93501204  1
  F  F33  1  0.47824418  0.99630123  0.43501204  1
  F  F34  1  0.00369877  0.48194295  0.43501204  1
  F  F35  1  0.51805705  0.52175582  0.43501204  1
  F  F36  1  0.47824418  0.99630123  0.06498796  1
  F  F37  1  0.00369877  0.48194295  0.06498796  1
  F  F38  1  0.51805705  0.52175582  0.06498796  1
  F  F39  1  0.52175582  0.00369877  0.56498796  1
  F  F40  1  0.99630123  0.51805705  0.56498796  1
  F  F41  1  0.48194295  0.47824418  0.56498796  1
  F  F42  1  0.25428209  0.75550073  0.25000000  1
  F  F43  1  0.24449927  0.49878136  0.25000000  1
  F  F44  1  0.50121864  0.74571791  0.25000000  1
  F  F45  1  0.74571791  0.24449927  0.75000000  1
  F  F46  1  0.75550073  0.50121864  0.75000000  1
  F  F47  1  0.49878136  0.25428209  0.75000000  1
  Li  Li48  1  0.33333333  0.66666667  0.25000000  1
  Li  Li49  1  0.66666667  0.33333333  0.75000000  1
  Li  Li50  1  0.00000000  0.00000000  0.25000000  1
  Li  Li51  1  0.00000000  0.00000000  0.75000000  1
  Li  Li52  1  0.44676120  0.06600975  0.25000000  1
  Li  Li53  1  0.93399025  0.38075145  0.25000000  1
  Li  Li54  1  0.61924855  0.55323880  0.25000000  1
  Li  Li55  1  0.55323880  0.93399025  0.75000000  1
  Li  Li56  1  0.06600975  0.61924855  0.75000000  1
  Li  Li57  1  0.38075145  0.44676120  0.75000000  1
  Li  Li58  1  0.50096482  0.25239019  0.52395364  1
  Li  Li59  1  -0.25239019  0.24857463  0.52395364  1
  Li  Li60  1  -0.24857463  -0.50096482  0.52395364  1
  Li  Li61  1  -0.50096482  -0.25239019  1.02395364  1
  Li  Li62  1  0.25239019  -0.24857463  1.02395364  1
  Li  Li63  1  0.24857463  0.50096482  1.02395364  1
  Li  Li64  1  -0.50096482  -0.25239019  -0.52395364  1
  Li  Li65  1  0.25239019  -0.24857463  -0.52395364  1
  Li  Li66  1  0.24857463  0.50096482  -0.52395364  1
  Li  Li67  1  0.50096482  0.25239019  -0.02395364  1
  Li  Li68  1  -0.25239019  0.24857463  -0.02395364  1
  Li  Li69  1  -0.24857463  -0.50096482  -0.02395364  1
  Li  Li70  1  0.43185866  0.02368889  0.98194118  1
  Li  Li71  1  0.97631111  0.40816977  0.98194118  1
  Li  Li72  1  0.59183023  0.56814134  0.98194118  1
  Li  Li73  1  0.56814134  0.97631111  0.48194118  1
  Li  Li74  1  0.02368889  0.59183023  0.48194118  1
  Li  Li75  1  0.40816977  0.43185866  0.48194118  1
  Li  Li76  1  0.56814134  0.97631111  0.01805882  1
  Li  Li77  1  0.02368889  0.59183023  0.01805882  1
  Li  Li78  1  0.40816977  0.43185866  0.01805882  1
  Li  Li79  1  0.43185866  0.02368889  0.51805882  1
  Li  Li80  1  0.97631111  0.40816977  0.51805882  1
  Li  Li81  1  0.59183023  0.56814134  0.51805882  1
  Li  Li82  1  0.77509917  0.12572197  0.25000000  1
  Li  Li83  1  0.87427803  0.64937721  0.25000000  1
  Li  Li84  1  0.35062279  0.22490083  0.25000000  1
  Li  Li85  1  0.22490083  0.87427803  0.75000000  1
  Li  Li86  1  0.12572197  0.35062279  0.75000000  1
  Li  Li87  1  0.64937721  0.77509917  0.75000000  1
  Li  Li88  1  0.94229245  0.27722716  0.25000000  1
  Li  Li89  1  0.72277284  0.66506530  0.25000000  1
  Li  Li90  1  0.33493470  0.05770755  0.25000000  1
  Li  Li91  1  0.05770755  0.72277284  0.75000000  1
  Li  Li92  1  0.27722716  0.33493470  0.75000000  1
  Li  Li93  1  0.66506530  0.94229245  0.75000000  1
  Li  Li94  1  0.66666667  0.33333333  0.25000000  1
  Li  Li95  1  0.33333333  0.66666667  0.75000000  1
