# generated using pymatgen
data_LiF
_symmetry_space_group_name_H-M   'P 1'
_cell_length_a   11.82203871
_cell_length_b   11.82203871
_cell_length_c   7.94294772
_cell_angle_alpha   90.00000000
_cell_angle_beta   90.00000000
_cell_angle_gamma   90.00000000
_symmetry_Int_Tables_number   1
_chemical_formula_structural   LiF
_chemical_formula_sum   'Li64 F64'
_cell_volume   1110.11113447
_cell_formula_units_Z   64
loop_
 _symmetry_equiv_pos_site_id
 _symmetry_equiv_pos_as_xyz
  1  'x, y, z'
loop_
 _atom_site_type_symbol
 _atom_site_label
 _atom_site_symmetry_multiplicity
 _atom_site_fract_x
 _atom_site_fract_y
 _atom_site_fract_z
 _atom_site_occupancy
  F  F0  1  0.83154386  0.08154386  0.12500000  1
  F  F1  1  0.66845614  0.91845614  0.62500000  1
  F  F2  1  0.16845614  0.58154386  0.37500000  1
  F  F3  1  0.33154386  0.41845614  0.87500000  1
  F  F4  1  0.16845614  0.91845614  0.87500000  1
  F  F5  1  0.33154386  0.08154386  0.37500000  1
  F  F6  1  0.83154386  0.41845614  0.62500000  1
  F  F7  1  0.66845614  0.58154386  0.12500000  1
  F  F8  1  0.33154386  0.58154386  0.62500000  1
  F  F9  1  0.16845614  0.41845614  0.12500000  1
  F  F10  1  0.66845614  0.08154386  0.87500000  1
  F  F11  1  0.83154386  0.91845614  0.37500000  1
  F  F12  1  0.66845614  0.41845614  0.37500000  1
  F  F13  1  0.83154386  0.58154386  0.87500000  1
  F  F14  1  0.33154386  0.91845614  0.12500000  1
  F  F15  1  0.16845614  0.08154386  0.62500000  1
  F  F16  1  0.00000000  0.00000000  0.00000000  1
  F  F17  1  0.50000000  0.00000000  0.50000000  1
  F  F18  1  0.25000000  0.75000000  0.25000000  1
  F  F19  1  0.25000000  0.25000000  0.75000000  1
  F  F20  1  0.50000000  0.00000000  -0.00000000  1
  F  F21  1  0.00000000  0.00000000  0.50000000  1
  F  F22  1  0.25000000  0.75000000  0.75000000  1
  F  F23  1  0.25000000  0.25000000  0.25000000  1
  F  F24  1  0.50000000  0.50000000  0.50000000  1
  F  F25  1  0.00000000  0.50000000  -0.00000000  1
  F  F26  1  0.75000000  0.25000000  0.75000000  1
  F  F27  1  0.75000000  0.75000000  0.25000000  1
  F  F28  1  0.00000000  0.50000000  0.50000000  1
  F  F29  1  0.50000000  0.50000000  -0.00000000  1
  F  F30  1  0.75000000  0.25000000  0.25000000  1
  F  F31  1  0.75000000  0.75000000  0.75000000  1
  F  F32  1  0.05495531  0.73308929  0.51468091  1
  F  F33  1  0.44504469  -0.73308929  1.01468091  1
  F  F34  1  -0.48308929  0.80495531  0.76468091  1
  F  F35  1  0.98308929  0.19504469  1.26468091  1
  F  F36  1  0.44504469  0.73308929  -0.51468091  1
  F  F37  1  0.05495531  -0.73308929  -0.01468091  1
  F  F38  1  0.98308929  0.80495531  0.23531909  1
  F  F39  1  -0.48308929  0.19504469  -0.26468091  1
  F  F40  1  -0.05495531  -0.73308929  -0.51468091  1
  F  F41  1  0.55495531  0.73308929  -0.01468091  1
  F  F42  1  1.48308929  0.19504469  0.23531909  1
  F  F43  1  0.01691071  0.80495531  -0.26468091  1
  F  F44  1  0.55495531  -0.73308929  0.51468091  1
  F  F45  1  -0.05495531  0.73308929  1.01468091  1
  F  F46  1  0.01691071  0.19504469  0.76468091  1
  F  F47  1  1.48308929  0.80495531  1.26468091  1
  F  F48  1  0.55495531  1.23308929  1.01468091  1
  F  F49  1  0.94504469  -0.23308929  1.51468091  1
  F  F50  1  0.01691071  1.30495531  1.26468091  1
  F  F51  1  1.48308929  0.69504469  1.76468091  1
  F  F52  1  0.94504469  1.23308929  -0.01468091  1
  F  F53  1  0.55495531  -0.23308929  0.48531909  1
  F  F54  1  1.48308929  1.30495531  0.73531909  1
  F  F55  1  0.01691071  0.69504469  0.23531909  1
  F  F56  1  0.44504469  -0.23308929  -0.01468091  1
  F  F57  1  1.05495531  1.23308929  0.48531909  1
  F  F58  1  1.98308929  0.69504469  0.73531909  1
  F  F59  1  0.51691071  1.30495531  0.23531909  1
  F  F60  1  1.05495531  -0.23308929  1.01468091  1
  F  F61  1  0.44504469  1.23308929  1.51468091  1
  F  F62  1  0.51691071  0.69504469  1.26468091  1
  F  F63  1  1.98308929  1.30495531  1.76468091  1
  Li  Li64  1  0.12950139  0.63266472  0.19147464  1
  Li  Li65  1  0.37049861  0.36733528  0.69147464  1
  Li  Li66  1  0.61733528  0.87950139  0.44147464  1
  Li  Li67  1  0.88266472  0.12049861  0.94147464  1
  Li  Li68  1  0.37049861  0.63266472  0.80852536  1
  Li  Li69  1  0.12950139  0.36733528  0.30852536  1
  Li  Li70  1  0.88266472  0.87950139  0.55852536  1
  Li  Li71  1  0.61733528  0.12049861  0.05852536  1
  Li  Li72  1  0.87049861  0.36733528  0.80852536  1
  Li  Li73  1  0.62950139  0.63266472  0.30852536  1
  Li  Li74  1  0.38266472  0.12049861  0.55852536  1
  Li  Li75  1  0.11733528  0.87950139  0.05852536  1
  Li  Li76  1  0.62950139  0.36733528  0.19147464  1
  Li  Li77  1  0.87049861  0.63266472  0.69147464  1
  Li  Li78  1  0.11733528  0.12049861  0.44147464  1
  Li  Li79  1  0.38266472  0.87950139  0.94147464  1
  Li  Li80  1  0.62950139  0.13266472  0.69147464  1
  Li  Li81  1  0.87049861  0.86733528  0.19147464  1
  Li  Li82  1  0.11733528  0.37950139  0.94147464  1
  Li  Li83  1  0.38266472  0.62049861  0.44147464  1
  Li  Li84  1  0.87049861  0.13266472  0.30852536  1
  Li  Li85  1  0.62950139  0.86733528  0.80852536  1
  Li  Li86  1  0.38266472  0.37950139  0.05852536  1
  Li  Li87  1  0.11733528  0.62049861  0.55852536  1
  Li  Li88  1  0.37049861  0.86733528  0.30852536  1
  Li  Li89  1  0.12950139  0.13266472  0.80852536  1
  Li  Li90  1  0.88266472  0.62049861  0.05852536  1
  Li  Li91  1  0.61733528  0.37950139  0.55852536  1
  Li  Li92  1  0.12950139  0.86733528  0.69147464  1
  Li  Li93  1  0.37049861  0.13266472  0.19147464  1
  Li  Li94  1  0.61733528  0.62049861  0.94147464  1
  Li  Li95  1  0.88266472  0.37950139  0.44147464  1
  Li  Li96  1  0.00000000  0.25000000  0.37500000  1
  Li  Li97  1  0.00000000  0.75000000  0.62500000  1
  Li  Li98  1  0.50000000  0.25000000  0.62500000  1
  Li  Li99  1  0.50000000  0.75000000  0.37500000  1
  Li  Li100  1  0.50000000  0.75000000  0.87500000  1
  Li  Li101  1  0.50000000  0.25000000  0.12500000  1
  Li  Li102  1  0.00000000  0.75000000  0.12500000  1
  Li  Li103  1  0.00000000  0.25000000  0.87500000  1
  Li  Li104  1  0.00000000  0.25000000  0.12500000  1
  Li  Li105  1  0.00000000  0.75000000  0.37500000  1
  Li  Li106  1  0.00000000  0.75000000  0.87500000  1
  Li  Li107  1  0.00000000  0.25000000  0.62500000  1
  Li  Li108  1  0.50000000  0.75000000  0.62500000  1
  Li  Li109  1  0.50000000  0.25000000  0.87500000  1
  Li  Li110  1  0.50000000  0.25000000  0.37500000  1
  Li  Li111  1  0.50000000  0.75000000  0.12500000  1
  Li  Li112  1  0.32941556  0.00000000  0.25000000  1
  Li  Li113  1  0.17058444  -0.00000000  0.75000000  1
  Li  Li114  1  0.25000000  0.07941556  0.50000000  1
  Li  Li115  1  0.25000000  0.92058444  -0.00000000  1
  Li  Li116  1  0.67058444  0.00000000  0.75000000  1
  Li  Li117  1  0.82941556  0.00000000  0.25000000  1
  Li  Li118  1  0.75000000  0.92058444  0.50000000  1
  Li  Li119  1  0.75000000  0.07941556  0.00000000  1
  Li  Li120  1  0.82941556  0.50000000  0.75000000  1
  Li  Li121  1  0.67058444  0.50000000  0.25000000  1
  Li  Li122  1  0.75000000  0.57941556  0.00000000  1
  Li  Li123  1  0.75000000  0.42058444  0.50000000  1
  Li  Li124  1  0.17058444  0.50000000  0.25000000  1
  Li  Li125  1  0.32941556  0.50000000  0.75000000  1
  Li  Li126  1  0.25000000  0.42058444  0.00000000  1
  Li  Li127  1  0.25000000  0.57941556  0.50000000  1
