# generated using pymatgen
data_LiF
_symmetry_space_group_name_H-M   'P 1'
_cell_length_a   8.89032654
_cell_length_b   8.89032654
_cell_length_c   28.46581066
_cell_angle_alpha   90.00000000
_cell_angle_beta   90.00000000
_cell_angle_gamma   90.00000000
_symmetry_Int_Tables_number   1
_chemical_formula_structural   LiF
_chemical_formula_sum   'Li64 F64'
_cell_volume   2249.87806822
_cell_formula_units_Z   64
loop_
 _symmetry_equiv_pos_site_id
 _symmetry_equiv_pos_as_xyz
  1  'x, y, z'
loop_
 _atom_site_type_symbol
 _atom_site_label
 _atom_site_symmetry_multiplicity
 _atom_site_fract_x
 _atom_site_fract_y
 _atom_site_fract_z
 _atom_site_occupancy
  F  F0  1  0.23904663  0.40261865  0.70480091  1
  F  F1  1  0.26095337  -0.40261865  1.20480091  1
  F  F2  1  -0.15261865  0.98904663  0.95480091  1
  F  F3  1  0.65261865  0.01095337  1.45480091  1
  F  F4  1  0.26095337  0.40261865  -0.70480091  1
  F  F5  1  0.23904663  -0.40261865  -0.20480091  1
  F  F6  1  0.65261865  0.98904663  0.04519909  1
  F  F7  1  -0.15261865  0.01095337  -0.45480091  1
  F  F8  1  -0.23904663  -0.40261865  -0.70480091  1
  F  F9  1  0.73904663  0.40261865  -0.20480091  1
  F  F10  1  1.15261865  0.01095337  0.04519909  1
  F  F11  1  0.34738135  0.98904663  -0.45480091  1
  F  F12  1  0.73904663  -0.40261865  0.70480091  1
  F  F13  1  -0.23904663  0.40261865  1.20480091  1
  F  F14  1  0.34738135  0.01095337  0.95480091  1
  F  F15  1  1.15261865  0.98904663  1.45480091  1
  F  F16  1  0.73904663  0.90261865  1.20480091  1
  F  F17  1  0.76095337  0.09738135  1.70480091  1
  F  F18  1  0.34738135  1.48904663  1.45480091  1
  F  F19  1  1.15261865  0.51095337  1.95480091  1
  F  F20  1  0.76095337  0.90261865  -0.20480091  1
  F  F21  1  0.73904663  0.09738135  0.29519909  1
  F  F22  1  1.15261865  1.48904663  0.54519909  1
  F  F23  1  0.34738135  0.51095337  0.04519909  1
  F  F24  1  0.26095337  0.09738135  -0.20480091  1
  F  F25  1  1.23904663  0.90261865  0.29519909  1
  F  F26  1  1.65261865  0.51095337  0.54519909  1
  F  F27  1  0.84738135  1.48904663  0.04519909  1
  F  F28  1  1.23904663  0.09738135  1.20480091  1
  F  F29  1  0.26095337  0.90261865  1.70480091  1
  F  F30  1  0.84738135  0.51095337  1.45480091  1
  F  F31  1  1.65261865  1.48904663  1.95480091  1
  F  F32  1  0.57230511  0.82230511  0.12500000  1
  F  F33  1  0.92769489  0.17769489  0.62500000  1
  F  F34  1  0.42769489  0.32230511  0.37500000  1
  F  F35  1  0.07230511  0.67769489  0.87500000  1
  F  F36  1  0.42769489  0.17769489  0.87500000  1
  F  F37  1  0.07230511  0.82230511  0.37500000  1
  F  F38  1  0.57230511  0.67769489  0.62500000  1
  F  F39  1  0.92769489  0.32230511  0.12500000  1
  F  F40  1  0.07230511  0.32230511  0.62500000  1
  F  F41  1  0.42769489  0.67769489  0.12500000  1
  F  F42  1  0.92769489  0.82230511  0.87500000  1
  F  F43  1  0.57230511  0.17769489  0.37500000  1
  F  F44  1  0.92769489  0.67769489  0.37500000  1
  F  F45  1  0.57230511  0.32230511  0.87500000  1
  F  F46  1  0.07230511  0.17769489  0.12500000  1
  F  F47  1  0.42769489  0.82230511  0.62500000  1
  F  F48  1  0.00000000  0.00000000  0.00000000  1
  F  F49  1  0.50000000  0.00000000  0.50000000  1
  F  F50  1  0.25000000  0.75000000  0.25000000  1
  F  F51  1  0.25000000  0.25000000  0.75000000  1
  F  F52  1  0.50000000  0.00000000  0.00000000  1
  F  F53  1  0.00000000  0.00000000  0.50000000  1
  F  F54  1  0.25000000  0.75000000  0.75000000  1
  F  F55  1  0.25000000  0.25000000  0.25000000  1
  F  F56  1  0.50000000  0.50000000  0.50000000  1
  F  F57  1  0.00000000  0.50000000  0.00000000  1
  F  F58  1  0.75000000  0.25000000  0.75000000  1
  F  F59  1  0.75000000  0.75000000  0.25000000  1
  F  F60  1  0.00000000  0.50000000  0.50000000  1
  F  F61  1  0.50000000  0.50000000  0.00000000  1
  F  F62  1  0.75000000  0.25000000  0.25000000  1
  F  F63  1  0.75000000  0.75000000  0.75000000  1
  Li  Li64  1  0.14863679  0.30247208  0.51655364  1
  Li  Li65  1  0.35136321  0.69752792  0.01655364  1
  Li  Li66  1  0.94752792  0.89863679  0.76655364  1
  Li  Li67  1  0.55247208  0.10136321  0.26655364  1
  Li  Li68  1  0.35136321  0.30247208  0.48344636  1
  Li  Li69  1  0.14863679  0.69752792  0.98344636  1
  Li  Li70  1  0.55247208  0.89863679  0.23344636  1
  Li  Li71  1  0.94752792  0.10136321  0.73344636  1
  Li  Li72  1  0.85136321  0.69752792  0.48344636  1
  Li  Li73  1  0.64863679  0.30247208  0.98344636  1
  Li  Li74  1  0.05247208  0.10136321  0.23344636  1
  Li  Li75  1  0.44752792  0.89863679  0.73344636  1
  Li  Li76  1  0.64863679  0.69752792  0.51655364  1
  Li  Li77  1  0.85136321  0.30247208  0.01655364  1
  Li  Li78  1  0.44752792  0.10136321  0.76655364  1
  Li  Li79  1  0.05247208  0.89863679  0.26655364  1
  Li  Li80  1  0.64863679  0.80247208  0.01655364  1
  Li  Li81  1  0.85136321  0.19752792  0.51655364  1
  Li  Li82  1  0.44752792  0.39863679  0.26655364  1
  Li  Li83  1  0.05247208  0.60136321  0.76655364  1
  Li  Li84  1  0.85136321  0.80247208  0.98344636  1
  Li  Li85  1  0.64863679  0.19752792  0.48344636  1
  Li  Li86  1  0.05247208  0.39863679  0.73344636  1
  Li  Li87  1  0.44752792  0.60136321  0.23344636  1
  Li  Li88  1  0.35136321  0.19752792  0.98344636  1
  Li  Li89  1  0.14863679  0.80247208  0.48344636  1
  Li  Li90  1  0.55247208  0.60136321  0.73344636  1
  Li  Li91  1  0.94752792  0.39863679  0.23344636  1
  Li  Li92  1  0.14863679  0.19752792  0.01655364  1
  Li  Li93  1  0.35136321  0.80247208  0.51655364  1
  Li  Li94  1  0.94752792  0.60136321  0.26655364  1
  Li  Li95  1  0.55247208  0.39863679  0.76655364  1
  Li  Li96  1  0.07298686  0.45066807  0.11774135  1
  Li  Li97  1  0.42701314  0.54933193  0.61774135  1
  Li  Li98  1  0.79933193  0.82298686  0.36774135  1
  Li  Li99  1  0.70066807  0.17701314  0.86774135  1
  Li  Li100  1  0.42701314  0.45066807  0.88225865  1
  Li  Li101  1  0.07298686  0.54933193  0.38225865  1
  Li  Li102  1  0.70066807  0.82298686  0.63225865  1
  Li  Li103  1  0.79933193  0.17701314  0.13225865  1
  Li  Li104  1  0.92701314  0.54933193  0.88225865  1
  Li  Li105  1  0.57298686  0.45066807  0.38225865  1
  Li  Li106  1  0.20066807  0.17701314  0.63225865  1
  Li  Li107  1  0.29933193  0.82298686  0.13225865  1
  Li  Li108  1  0.57298686  0.54933193  0.11774135  1
  Li  Li109  1  0.92701314  0.45066807  0.61774135  1
  Li  Li110  1  0.29933193  0.17701314  0.36774135  1
  Li  Li111  1  0.20066807  0.82298686  0.86774135  1
  Li  Li112  1  0.57298686  0.95066807  0.61774135  1
  Li  Li113  1  0.92701314  0.04933193  0.11774135  1
  Li  Li114  1  0.29933193  0.32298686  0.86774135  1
  Li  Li115  1  0.20066807  0.67701314  0.36774135  1
  Li  Li116  1  0.92701314  0.95066807  0.38225865  1
  Li  Li117  1  0.57298686  0.04933193  0.88225865  1
  Li  Li118  1  0.20066807  0.32298686  0.13225865  1
  Li  Li119  1  0.29933193  0.67701314  0.63225865  1
  Li  Li120  1  0.42701314  0.04933193  0.38225865  1
  Li  Li121  1  0.07298686  0.95066807  0.88225865  1
  Li  Li122  1  0.70066807  0.67701314  0.13225865  1
  Li  Li123  1  0.79933193  0.32298686  0.63225865  1
  Li  Li124  1  0.07298686  0.04933193  0.61774135  1
  Li  Li125  1  0.42701314  0.95066807  0.11774135  1
  Li  Li126  1  0.79933193  0.67701314  0.86774135  1
  Li  Li127  1  0.70066807  0.32298686  0.36774135  1
