# generated using pymatgen
data_Li2Y2Cu3P3Se
_symmetry_space_group_name_H-M   'P 1'
_cell_length_a   4.94223815
_cell_length_b   5.03444414
_cell_length_c   6.87977090
_cell_angle_alpha   94.58216034
_cell_angle_beta   98.54845080
_cell_angle_gamma   106.16124878
_symmetry_Int_Tables_number   1
_chemical_formula_structural   Li2Y2Cu3P3Se
_chemical_formula_sum   'Li2 Y2 Cu3 P3 Se1'
_cell_volume   161.25681627
_cell_formula_units_Z   1
loop_
 _symmetry_equiv_pos_site_id
 _symmetry_equiv_pos_as_xyz
  1  'x, y, z'
loop_
 _atom_site_type_symbol
 _atom_site_label
 _atom_site_symmetry_multiplicity
 _atom_site_fract_x
 _atom_site_fract_y
 _atom_site_fract_z
 _atom_site_occupancy
  Se  Se0  1  0.00000000  0.00000000  0.00000000  1
  Cu  Cu1  1  0.50000000  0.50000000  0.50000000  1
  Cu  Cu2  1  0.25000000  0.25000000  0.25000000  1
  Cu  Cu3  1  0.75000000  0.25000000  0.00000000  1
  Y  Y4  1  0.25000000  0.75000000  0.50000000  1
  Y  Y5  1  0.96438455  0.91723636  0.10961991  1
  P  P6  1  0.28070239  0.73192091  0.76300369  1
  P  P7  1  0.53932290  0.80976532  0.34149786  1
  P  P8  1  0.15699870  0.82703886  0.39090254  1
  Li  Li9  1  0.26364980  0.58996954  0.86945018  1
  Li  Li10  1  0.04665445  0.46999979  0.48791838  1
