# generated using pymatgen
data_LiY2Te4(PSe)2
_symmetry_space_group_name_H-M   'P 1'
_cell_length_a   4.33964480
_cell_length_b   4.58766867
_cell_length_c   6.80487983
_cell_angle_alpha   95.81732393
_cell_angle_beta   102.16330235
_cell_angle_gamma   112.57293256
_symmetry_Int_Tables_number   1
_chemical_formula_structural   LiY2Te4(PSe)2
_chemical_formula_sum   'Li1 Y2 Te4 P2 Se2'
_cell_volume   119.77222070
_cell_formula_units_Z   1
loop_
 _symmetry_equiv_pos_site_id
 _symmetry_equiv_pos_as_xyz
  1  'x, y, z'
loop_
 _atom_site_type_symbol
 _atom_site_label
 _atom_site_symmetry_multiplicity
 _atom_site_fract_x
 _atom_site_fract_y
 _atom_site_fract_z
 _atom_site_occupancy
  Se  Se0  1  0.00000000  0.00000000  0.00000000  1
  Se  Se1  1  0.50000000  0.50000000  0.50000000  1
  Te  Te2  1  0.50000000  0.50000000  0.00000000  1
  Te  Te3  1  0.50000000  0.00000000  0.50000000  1
  Te  Te4  1  0.00000000  0.50000000  0.50000000  1
  Te  Te5  1  0.47562720  0.84007537  0.81267601  1
  P  P6  1  0.45353684  0.71919784  0.90989733  1
  P  P7  1  0.06045903  0.50950922  0.11890067  1
  Li  Li8  1  0.83296266  0.45083935  0.12434676  1
  Y  Y9  1  0.55028709  0.54980592  0.71998475  1
  Y  Y10  1  0.52441959  0.10137628  0.87555005  1
