# generated using pymatgen
data_LiCaF3
_symmetry_space_group_name_H-M   'P 1'
_cell_length_a   7.93784839
_cell_length_b   7.93784839
_cell_length_c   23.19295757
_cell_angle_alpha   90.00000000
_cell_angle_beta   90.00000000
_cell_angle_gamma   120.00000000
_symmetry_Int_Tables_number   1
_chemical_formula_structural   LiCaF3
_chemical_formula_sum   'Li18 Ca18 F54'
_cell_volume   1265.58804922
_cell_formula_units_Z   18
loop_
 _symmetry_equiv_pos_site_id
 _symmetry_equiv_pos_as_xyz
  1  'x, y, z'
loop_
 _atom_site_type_symbol
 _atom_site_label
 _atom_site_symmetry_multiplicity
 _atom_site_fract_x
 _atom_site_fract_y
 _atom_site_fract_z
 _atom_site_occupancy
  Ca  Ca0  1  0.00000000  0.00000000  0.00000000  1
  Ca  Ca1  1  0.24542661  0.75457339  0.00000000  1
  Ca  Ca2  1  0.24542661  0.49085322  0.00000000  1
  Ca  Ca3  1  0.50914678  0.75457339  0.00000000  1
  Ca  Ca4  1  0.16973267  0.97051323  0.76586868  1
  Ca  Ca5  1  -0.97051323  -0.80078056  0.76586868  1
  Ca  Ca6  1  0.80078056  -0.16973267  0.76586868  1
  Ca  Ca7  1  -0.97051323  -0.16973267  -0.76586868  1
  Ca  Ca8  1  0.80078056  0.97051323  -0.76586868  1
  Ca  Ca9  1  0.16973267  -0.80078056  -0.76586868  1
  Ca  Ca10  1  0.80317036  0.21087337  0.89812194  1
  Ca  Ca11  1  0.78912663  0.59229699  0.89812194  1
  Ca  Ca12  1  0.40770301  0.19682964  0.89812194  1
  Ca  Ca13  1  0.78912663  0.19682964  0.10187806  1
  Ca  Ca14  1  0.40770301  0.21087337  0.10187806  1
  Ca  Ca15  1  0.80317036  0.59229699  0.10187806  1
  Ca  Ca16  1  0.66666667  0.33333333  0.14067736  1
  Ca  Ca17  1  0.66666667  0.33333333  0.85932264  1
  F  F18  1  0.66666667  0.33333333  0.00000000  1
  F  F19  1  0.84678768  0.15321232  0.50000000  1
  F  F20  1  0.84678768  0.69357536  0.50000000  1
  F  F21  1  0.30642464  0.15321232  0.50000000  1
  F  F22  1  0.20363138  0.79636862  0.50000000  1
  F  F23  1  0.20363138  0.40726275  0.50000000  1
  F  F24  1  0.59273725  0.79636862  0.50000000  1
  F  F25  1  0.26395336  0.68719169  0.69238654  1
  F  F26  1  0.31280831  0.57676167  0.69238654  1
  F  F27  1  0.42323833  0.73604664  0.69238654  1
  F  F28  1  0.31280831  0.73604664  0.30761346  1
  F  F29  1  0.42323833  0.68719169  0.30761346  1
  F  F30  1  0.26395336  0.57676167  0.30761346  1
  F  F31  1  0.45880788  0.80474336  0.05484144  1
  F  F32  1  0.19525664  0.65406452  0.05484144  1
  F  F33  1  0.34593548  0.54119212  0.05484144  1
  F  F34  1  0.19525664  0.54119212  0.94515856  1
  F  F35  1  0.34593548  0.80474336  0.94515856  1
  F  F36  1  0.45880788  0.65406452  0.94515856  1
  F  F37  1  0.94229352  0.50424708  0.87139225  1
  F  F38  1  0.49575292  0.43804645  0.87139225  1
  F  F39  1  0.56195355  0.05770648  0.87139225  1
  F  F40  1  0.49575292  0.05770648  0.12860775  1
  F  F41  1  0.56195355  0.50424708  0.12860775  1
  F  F42  1  0.94229352  0.43804645  0.12860775  1
  F  F43  1  0.33333333  0.66666667  0.50000000  1
  F  F44  1  0.33333333  0.66666667  0.00000000  1
  F  F45  1  0.66666667  0.33333333  0.50000000  1
  F  F46  1  0.31177804  0.18271777  0.60432851  1
  F  F47  1  0.81728223  0.12906027  0.60432851  1
  F  F48  1  0.87093973  0.68822196  0.60432851  1
  F  F49  1  0.81728223  0.68822196  0.39567149  1
  F  F50  1  0.87093973  0.18271777  0.39567149  1
  F  F51  1  0.31177804  0.12906027  0.39567149  1
  F  F52  1  0.42217761  0.44929257  0.65786702  1
  F  F53  1  0.55070743  0.97288504  0.65786702  1
  F  F54  1  0.02711496  0.57782239  0.65786702  1
  F  F55  1  0.55070743  0.57782239  0.34213298  1
  F  F56  1  0.02711496  0.44929257  0.34213298  1
  F  F57  1  0.42217761  0.97288504  0.34213298  1
  F  F58  1  0.39088404  0.48354937  0.17103332  1
  F  F59  1  0.51645063  0.90733467  0.17103332  1
  F  F60  1  0.09266533  0.60911596  0.17103332  1
  F  F61  1  0.51645063  0.60911596  0.82896668  1
  F  F62  1  0.09266533  0.48354937  0.82896668  1
  F  F63  1  0.39088404  0.90733467  0.82896668  1
  F  F64  1  0.77831338  0.43519956  0.51914345  1
  F  F65  1  0.56480044  0.34311382  0.51914345  1
  F  F66  1  0.65688618  0.22168662  0.51914345  1
  F  F67  1  0.56480044  0.22168662  0.48085655  1
  F  F68  1  0.65688618  0.43519956  0.48085655  1
  F  F69  1  0.77831338  0.34311382  0.48085655  1
  F  F70  1  0.00000000  0.00000000  0.12760912  1
  F  F71  1  0.00000000  0.00000000  0.87239088  1
  Li  Li72  1  0.00000000  0.00000000  0.50000000  1
  Li  Li73  1  0.90161937  0.14641885  0.46548994  1
  Li  Li74  1  0.85358115  0.75520052  0.46548994  1
  Li  Li75  1  0.24479948  0.09838063  0.46548994  1
  Li  Li76  1  0.85358115  0.09838063  0.53451006  1
  Li  Li77  1  0.24479948  0.14641885  0.53451006  1
  Li  Li78  1  0.90161937  0.75520052  0.53451006  1
  Li  Li79  1  0.32073049  0.93425783  0.10674059  1
  Li  Li80  1  0.06574217  0.38647267  0.10674059  1
  Li  Li81  1  0.61352733  0.67926951  0.10674059  1
  Li  Li82  1  0.06574217  0.67926951  0.89325941  1
  Li  Li83  1  0.61352733  0.93425783  0.89325941  1
  Li  Li84  1  0.32073049  0.38647267  0.89325941  1
  Li  Li85  1  0.40856043  0.59143957  0.50000000  1
  Li  Li86  1  0.40856043  0.81712086  0.50000000  1
  Li  Li87  1  0.18287914  0.59143957  0.50000000  1
  Li  Li88  1  0.66666667  0.33333333  0.94884017  1
  Li  Li89  1  0.66666667  0.33333333  0.05115983  1
