# generated using pymatgen
data_LiF
_symmetry_space_group_name_H-M   'P 1'
_cell_length_a   8.58460010
_cell_length_b   8.58460010
_cell_length_c   19.97766912
_cell_angle_alpha   90.00000000
_cell_angle_beta   90.00000000
_cell_angle_gamma   90.00000000
_symmetry_Int_Tables_number   1
_chemical_formula_structural   LiF
_chemical_formula_sum   'Li64 F64'
_cell_volume   1472.26149368
_cell_formula_units_Z   64
loop_
 _symmetry_equiv_pos_site_id
 _symmetry_equiv_pos_as_xyz
  1  'x, y, z'
loop_
 _atom_site_type_symbol
 _atom_site_label
 _atom_site_symmetry_multiplicity
 _atom_site_fract_x
 _atom_site_fract_y
 _atom_site_fract_z
 _atom_site_occupancy
  F  F0  1  0.45228590  0.70228590  0.12500000  1
  F  F1  1  0.04771410  0.29771410  0.62500000  1
  F  F2  1  0.54771410  0.20228590  0.37500000  1
  F  F3  1  0.95228590  0.79771410  0.87500000  1
  F  F4  1  0.54771410  0.29771410  0.87500000  1
  F  F5  1  0.95228590  0.70228590  0.37500000  1
  F  F6  1  0.45228590  0.79771410  0.62500000  1
  F  F7  1  0.04771410  0.20228590  0.12500000  1
  F  F8  1  0.95228590  0.20228590  0.62500000  1
  F  F9  1  0.54771410  0.79771410  0.12500000  1
  F  F10  1  0.04771410  0.70228590  0.87500000  1
  F  F11  1  0.45228590  0.29771410  0.37500000  1
  F  F12  1  0.04771410  0.79771410  0.37500000  1
  F  F13  1  0.45228590  0.20228590  0.87500000  1
  F  F14  1  0.95228590  0.29771410  0.12500000  1
  F  F15  1  0.54771410  0.70228590  0.62500000  1
  F  F16  1  0.00000000  0.25000000  0.37500000  1
  F  F17  1  0.00000000  0.75000000  0.62500000  1
  F  F18  1  0.50000000  0.25000000  0.62500000  1
  F  F19  1  0.50000000  0.75000000  0.37500000  1
  F  F20  1  0.50000000  0.75000000  0.87500000  1
  F  F21  1  0.50000000  0.25000000  0.12500000  1
  F  F22  1  0.00000000  0.75000000  0.12500000  1
  F  F23  1  0.00000000  0.25000000  0.87500000  1
  F  F24  1  0.00000000  0.25000000  0.12500000  1
  F  F25  1  0.00000000  0.75000000  0.37500000  1
  F  F26  1  0.00000000  0.75000000  0.87500000  1
  F  F27  1  0.00000000  0.25000000  0.62500000  1
  F  F28  1  0.50000000  0.75000000  0.62500000  1
  F  F29  1  0.50000000  0.25000000  0.87500000  1
  F  F30  1  0.50000000  0.25000000  0.37500000  1
  F  F31  1  0.50000000  0.75000000  0.12500000  1
  F  F32  1  0.42388262  0.02202387  0.12953700  1
  F  F33  1  0.07611738  0.97797613  0.62953700  1
  F  F34  1  0.22797613  0.17388262  0.37953700  1
  F  F35  1  0.27202387  0.82611738  0.87953700  1
  F  F36  1  0.07611738  0.02202387  0.87046300  1
  F  F37  1  0.42388262  0.97797613  0.37046300  1
  F  F38  1  0.27202387  0.17388262  0.62046300  1
  F  F39  1  0.22797613  0.82611738  0.12046300  1
  F  F40  1  0.57611738  0.97797613  0.87046300  1
  F  F41  1  0.92388262  0.02202387  0.37046300  1
  F  F42  1  0.77202387  0.82611738  0.62046300  1
  F  F43  1  0.72797613  0.17388262  0.12046300  1
  F  F44  1  0.92388262  0.97797613  0.12953700  1
  F  F45  1  0.57611738  0.02202387  0.62953700  1
  F  F46  1  0.72797613  0.82611738  0.37953700  1
  F  F47  1  0.77202387  0.17388262  0.87953700  1
  F  F48  1  0.92388262  0.52202387  0.62953700  1
  F  F49  1  0.57611738  0.47797613  0.12953700  1
  F  F50  1  0.72797613  0.67388262  0.87953700  1
  F  F51  1  0.77202387  0.32611738  0.37953700  1
  F  F52  1  0.57611738  0.52202387  0.37046300  1
  F  F53  1  0.92388262  0.47797613  0.87046300  1
  F  F54  1  0.77202387  0.67388262  0.12046300  1
  F  F55  1  0.72797613  0.32611738  0.62046300  1
  F  F56  1  0.07611738  0.47797613  0.37046300  1
  F  F57  1  0.42388262  0.52202387  0.87046300  1
  F  F58  1  0.27202387  0.32611738  0.12046300  1
  F  F59  1  0.22797613  0.67388262  0.62046300  1
  F  F60  1  0.42388262  0.47797613  0.62953700  1
  F  F61  1  0.07611738  0.52202387  0.12953700  1
  F  F62  1  0.22797613  0.32611738  0.87953700  1
  F  F63  1  0.27202387  0.67388262  0.37953700  1
  Li  Li64  1  0.02995246  0.63294832  0.43506103  1
  Li  Li65  1  0.47004754  -0.63294832  0.93506103  1
  Li  Li66  1  -0.38294832  0.77995246  0.68506103  1
  Li  Li67  1  0.88294832  0.22004754  1.18506103  1
  Li  Li68  1  0.47004754  0.63294832  -0.43506103  1
  Li  Li69  1  0.02995246  -0.63294832  0.06493897  1
  Li  Li70  1  0.88294832  0.77995246  0.31493897  1
  Li  Li71  1  -0.38294832  0.22004754  -0.18506103  1
  Li  Li72  1  -0.02995246  -0.63294832  -0.43506103  1
  Li  Li73  1  0.52995246  0.63294832  0.06493897  1
  Li  Li74  1  1.38294832  0.22004754  0.31493897  1
  Li  Li75  1  0.11705168  0.77995246  -0.18506103  1
  Li  Li76  1  0.52995246  -0.63294832  0.43506103  1
  Li  Li77  1  -0.02995246  0.63294832  0.93506103  1
  Li  Li78  1  0.11705168  0.22004754  0.68506103  1
  Li  Li79  1  1.38294832  0.77995246  1.18506103  1
  Li  Li80  1  0.52995246  1.13294832  0.93506103  1
  Li  Li81  1  0.97004754  -0.13294832  1.43506103  1
  Li  Li82  1  0.11705168  1.27995246  1.18506103  1
  Li  Li83  1  1.38294832  0.72004754  1.68506103  1
  Li  Li84  1  0.97004754  1.13294832  0.06493897  1
  Li  Li85  1  0.52995246  -0.13294832  0.56493897  1
  Li  Li86  1  1.38294832  1.27995246  0.81493897  1
  Li  Li87  1  0.11705168  0.72004754  0.31493897  1
  Li  Li88  1  0.47004754  -0.13294832  0.06493897  1
  Li  Li89  1  1.02995246  1.13294832  0.56493897  1
  Li  Li90  1  1.88294832  0.72004754  0.81493897  1
  Li  Li91  1  0.61705168  1.27995246  0.31493897  1
  Li  Li92  1  1.02995246  -0.13294832  0.93506103  1
  Li  Li93  1  0.47004754  1.13294832  1.43506103  1
  Li  Li94  1  0.61705168  0.72004754  1.18506103  1
  Li  Li95  1  1.88294832  1.27995246  1.68506103  1
  Li  Li96  1  0.49930412  0.00000000  0.25000000  1
  Li  Li97  1  0.00069588  0.00000000  0.75000000  1
  Li  Li98  1  0.25000000  0.24930412  0.50000000  1
  Li  Li99  1  0.25000000  0.75069588  0.00000000  1
  Li  Li100  1  0.50069588  0.00000000  0.75000000  1
  Li  Li101  1  0.99930412  0.00000000  0.25000000  1
  Li  Li102  1  0.75000000  0.75069588  0.50000000  1
  Li  Li103  1  0.75000000  0.24930412  0.00000000  1
  Li  Li104  1  0.99930412  0.50000000  0.75000000  1
  Li  Li105  1  0.50069588  0.50000000  0.25000000  1
  Li  Li106  1  0.75000000  0.74930412  0.00000000  1
  Li  Li107  1  0.75000000  0.25069588  0.50000000  1
  Li  Li108  1  0.00069588  0.50000000  0.25000000  1
  Li  Li109  1  0.49930412  0.50000000  0.75000000  1
  Li  Li110  1  0.25000000  0.25069588  0.00000000  1
  Li  Li111  1  0.25000000  0.74930412  0.50000000  1
  Li  Li112  1  0.00000000  0.00000000  0.00000000  1
  Li  Li113  1  0.50000000  0.00000000  0.50000000  1
  Li  Li114  1  0.25000000  0.75000000  0.25000000  1
  Li  Li115  1  0.25000000  0.25000000  0.75000000  1
  Li  Li116  1  0.50000000  0.00000000  0.00000000  1
  Li  Li117  1  0.00000000  0.00000000  0.50000000  1
  Li  Li118  1  0.25000000  0.75000000  0.75000000  1
  Li  Li119  1  0.25000000  0.25000000  0.25000000  1
  Li  Li120  1  0.50000000  0.50000000  0.50000000  1
  Li  Li121  1  0.00000000  0.50000000  0.00000000  1
  Li  Li122  1  0.75000000  0.25000000  0.75000000  1
  Li  Li123  1  0.75000000  0.75000000  0.25000000  1
  Li  Li124  1  0.00000000  0.50000000  0.50000000  1
  Li  Li125  1  0.50000000  0.50000000  0.00000000  1
  Li  Li126  1  0.75000000  0.25000000  0.25000000  1
  Li  Li127  1  0.75000000  0.75000000  0.75000000  1
