# generated using pymatgen
data_Li3Y2As4P3Se
_symmetry_space_group_name_H-M   'P 1'
_cell_length_a   5.85414710
_cell_length_b   6.08163811
_cell_length_c   7.12365939
_cell_angle_alpha   92.27825401
_cell_angle_beta   95.45989548
_cell_angle_gamma   99.75254813
_symmetry_Int_Tables_number   1
_chemical_formula_structural   Li3Y2As4P3Se
_chemical_formula_sum   'Li3 Y2 As4 P3 Se1'
_cell_volume   248.41918988
_cell_formula_units_Z   1
loop_
 _symmetry_equiv_pos_site_id
 _symmetry_equiv_pos_as_xyz
  1  'x, y, z'
loop_
 _atom_site_type_symbol
 _atom_site_label
 _atom_site_symmetry_multiplicity
 _atom_site_fract_x
 _atom_site_fract_y
 _atom_site_fract_z
 _atom_site_occupancy
  Se  Se0  1  0.12500000  0.00000000  0.25000000  1
  P  P1  1  0.00000000  0.00000000  0.00000000  1
  P  P2  1  0.37500000  0.00000000  0.25000000  1
  P  P3  1  0.25000000  0.25000000  0.25000000  1
  As  As4  1  0.00000000  0.25000000  0.12500000  1
  As  As5  1  0.19314967  0.36048035  0.01057944  1
  As  As6  1  0.55060058  0.50785857  0.02110054  1
  As  As7  1  0.77671830  0.04756935  0.44392741  1
  Li  Li8  1  0.38128388  0.39710796  0.91299186  1
  Li  Li9  1  0.43541800  0.87905117  0.90935071  1
  Li  Li10  1  0.32655892  0.97040502  0.39747444  1
  Y  Y11  1  0.35028344  0.50905517  0.13560680  1
  Y  Y12  1  0.84508429  0.06211579  0.16235437  1
