# generated using pymatgen
data_Li2YP4
_symmetry_space_group_name_H-M   'P 1'
_cell_length_a   3.85016406
_cell_length_b   4.07801332
_cell_length_c   6.74906439
_cell_angle_alpha   97.05886961
_cell_angle_beta   105.20044124
_cell_angle_gamma   117.51530658
_symmetry_Int_Tables_number   1
_chemical_formula_structural   Li2YP4
_chemical_formula_sum   'Li2 Y1 P4'
_cell_volume   86.92857924
_cell_formula_units_Z   1
loop_
 _symmetry_equiv_pos_site_id
 _symmetry_equiv_pos_as_xyz
  1  'x, y, z'
loop_
 _atom_site_type_symbol
 _atom_site_label
 _atom_site_symmetry_multiplicity
 _atom_site_fract_x
 _atom_site_fract_y
 _atom_site_fract_z
 _atom_site_occupancy
  P  P0  1  0.12500000  0.00000000  0.25000000  1
  P  P1  1  0.00000000  0.00000000  0.00000000  1
  P  P2  1  0.37500000  0.00000000  0.25000000  1
  P  P3  1  0.25000000  0.25000000  0.25000000  1
  Li  Li4  1  0.00000000  0.25000000  0.12500000  1
  Li  Li5  1  0.71001218  0.80300555  0.44787705  1
  Y  Y6  1  0.16069863  0.30622228  0.32768667  1
