# generated using pymatgen
data_LiF
_symmetry_space_group_name_H-M   'P 1'
_cell_length_a   10.68848478
_cell_length_b   10.38025124
_cell_length_c   6.45964111
_cell_angle_alpha   90.00000000
_cell_angle_beta   90.00000000
_cell_angle_gamma   90.00000000
_symmetry_Int_Tables_number   1
_chemical_formula_structural   LiF
_chemical_formula_sum   'Li24 F24'
_cell_volume   716.69173815
_cell_formula_units_Z   24
loop_
 _symmetry_equiv_pos_site_id
 _symmetry_equiv_pos_as_xyz
  1  'x, y, z'
loop_
 _atom_site_type_symbol
 _atom_site_label
 _atom_site_symmetry_multiplicity
 _atom_site_fract_x
 _atom_site_fract_y
 _atom_site_fract_z
 _atom_site_occupancy
  F  F0  1  0.00000000  0.50000000  0.50000000  1
  F  F1  1  0.50000000  -0.00000000  0.50000000  1
  F  F2  1  0.10915728  0.25203224  0.32130392  1
  F  F3  1  0.89084272  0.74796776  0.32130392  1
  F  F4  1  0.39084272  0.75203224  0.67869608  1
  F  F5  1  0.60915728  0.24796776  0.67869608  1
  F  F6  1  0.89084272  0.74796776  0.67869608  1
  F  F7  1  0.10915728  0.25203224  0.67869608  1
  F  F8  1  0.60915728  0.24796776  0.32130392  1
  F  F9  1  0.39084272  0.75203224  0.32130392  1
  F  F10  1  0.21734140  0.03884733  0.50000000  1
  F  F11  1  0.78265860  0.96115267  0.50000000  1
  F  F12  1  0.28265860  0.53884733  0.50000000  1
  F  F13  1  0.71734140  0.46115267  0.50000000  1
  F  F14  1  0.12183166  0.59820459  0.25963178  1
  F  F15  1  0.87816834  0.40179541  0.25963178  1
  F  F16  1  0.37816834  0.09820459  0.74036822  1
  F  F17  1  0.62183166  0.90179541  0.74036822  1
  F  F18  1  0.87816834  0.40179541  0.74036822  1
  F  F19  1  0.12183166  0.59820459  0.74036822  1
  F  F20  1  0.62183166  0.90179541  0.25963178  1
  F  F21  1  0.37816834  0.09820459  0.25963178  1
  F  F22  1  0.00000000  0.50000000  0.00000000  1
  F  F23  1  0.50000000  -0.00000000  0.00000000  1
  Li  Li24  1  0.54163219  0.95375341  0.76456343  1
  Li  Li25  1  -0.54163219  -0.95375341  0.76456343  1
  Li  Li26  1  -0.04163219  1.45375341  -0.76456343  1
  Li  Li27  1  1.04163219  -0.45375341  -0.76456343  1
  Li  Li28  1  -0.54163219  -0.95375341  -0.76456343  1
  Li  Li29  1  0.54163219  0.95375341  -0.76456343  1
  Li  Li30  1  1.04163219  -0.45375341  0.76456343  1
  Li  Li31  1  -0.04163219  1.45375341  0.76456343  1
  Li  Li32  1  0.28368830  0.69665802  0.50000000  1
  Li  Li33  1  0.71631170  0.30334198  0.50000000  1
  Li  Li34  1  0.21631170  0.19665802  0.50000000  1
  Li  Li35  1  0.78368830  0.80334198  0.50000000  1
  Li  Li36  1  0.93529822  0.75849740  0.50000000  1
  Li  Li37  1  0.06470178  0.24150260  0.50000000  1
  Li  Li38  1  0.56470178  0.25849740  0.50000000  1
  Li  Li39  1  0.43529822  0.74150260  0.50000000  1
  Li  Li40  1  0.00000000  0.00000000  0.50000000  1
  Li  Li41  1  0.50000000  0.50000000  0.50000000  1
  Li  Li42  1  0.00000000  0.00000000  0.00000000  1
  Li  Li43  1  0.50000000  0.50000000  0.00000000  1
  Li  Li44  1  0.02834014  0.18268923  0.00000000  1
  Li  Li45  1  0.97165986  0.81731077  0.00000000  1
  Li  Li46  1  0.47165986  0.68268923  0.00000000  1
  Li  Li47  1  0.52834014  0.31731077  0.00000000  1
