# generated using pymatgen
data_Li2Y2Mo(As2P)2
_symmetry_space_group_name_H-M   'P 1'
_cell_length_a   5.00823282
_cell_length_b   5.22139277
_cell_length_c   7.04492867
_cell_angle_alpha   94.78048826
_cell_angle_beta   100.41090958
_cell_angle_gamma   109.20132136
_symmetry_Int_Tables_number   1
_chemical_formula_structural   Li2Y2Mo(As2P)2
_chemical_formula_sum   'Li2 Y2 Mo1 As4 P2'
_cell_volume   169.07821514
_cell_formula_units_Z   1
loop_
 _symmetry_equiv_pos_site_id
 _symmetry_equiv_pos_as_xyz
  1  'x, y, z'
loop_
 _atom_site_type_symbol
 _atom_site_label
 _atom_site_symmetry_multiplicity
 _atom_site_fract_x
 _atom_site_fract_y
 _atom_site_fract_z
 _atom_site_occupancy
  P  P0  1  0.00000000  0.00000000  0.00000000  1
  P  P1  1  0.50000000  0.50000000  0.50000000  1
  Mo  Mo2  1  0.25000000  0.25000000  0.25000000  1
  As  As3  1  0.75000000  0.25000000  0.00000000  1
  As  As4  1  0.25000000  0.75000000  0.50000000  1
  As  As5  1  0.64731616  0.38269912  0.13075787  1
  As  As6  1  0.60777178  0.65886705  0.44716179  1
  Li  Li7  1  0.22642498  0.15855655  0.23635434  1
  Li  Li8  1  0.09725171  0.43478027  0.43890442  1
  Y  Y9  1  0.79901804  0.79410704  0.94642418  1
  Y  Y10  1  0.78908951  0.44590560  0.92073782  1
