# generated using pymatgen
data_LiF
_symmetry_space_group_name_H-M   'P 1'
_cell_length_a   8.22147541
_cell_length_b   7.66663034
_cell_length_c   8.62106595
_cell_angle_alpha   90.00000000
_cell_angle_beta   90.00000000
_cell_angle_gamma   90.00000000
_symmetry_Int_Tables_number   1
_chemical_formula_structural   LiF
_chemical_formula_sum   'Li16 F16'
_cell_volume   543.39451850
_cell_formula_units_Z   16
loop_
 _symmetry_equiv_pos_site_id
 _symmetry_equiv_pos_as_xyz
  1  'x, y, z'
loop_
 _atom_site_type_symbol
 _atom_site_label
 _atom_site_symmetry_multiplicity
 _atom_site_fract_x
 _atom_site_fract_y
 _atom_site_fract_z
 _atom_site_occupancy
  F  F0  1  0.58846262  0.86673141  0.95601277  1
  F  F1  1  -0.58846262  -0.86673141  0.95601277  1
  F  F2  1  -0.08846262  1.36673141  -0.95601277  1
  F  F3  1  1.08846262  -0.36673141  -0.95601277  1
  F  F4  1  -0.58846262  -0.86673141  -0.95601277  1
  F  F5  1  0.58846262  0.86673141  -0.95601277  1
  F  F6  1  1.08846262  -0.36673141  0.95601277  1
  F  F7  1  -0.08846262  1.36673141  0.95601277  1
  F  F8  1  0.31444032  0.04221622  0.04763713  1
  F  F9  1  0.68555968  0.95778378  0.04763713  1
  F  F10  1  0.18555968  0.54221622  0.95236287  1
  F  F11  1  0.81444032  0.45778378  0.95236287  1
  F  F12  1  0.68555968  0.95778378  0.95236287  1
  F  F13  1  0.31444032  0.04221622  0.95236287  1
  F  F14  1  0.81444032  0.45778378  0.04763713  1
  F  F15  1  0.18555968  0.54221622  0.04763713  1
  Li  Li16  1  0.03292888  0.25730143  -0.00000000  1
  Li  Li17  1  0.96707112  0.74269857  0.00000000  1
  Li  Li18  1  0.46707112  0.75730143  0.00000000  1
  Li  Li19  1  0.53292888  0.24269857  0.00000000  1
  Li  Li20  1  0.00000000  0.50000000  0.00000000  1
  Li  Li21  1  0.50000000  0.00000000  0.00000000  1
  Li  Li22  1  0.00000000  0.50000000  0.50000000  1
  Li  Li23  1  0.50000000  0.00000000  0.50000000  1
  Li  Li24  1  0.20771488  0.39652195  0.50000000  1
  Li  Li25  1  0.79228512  0.60347805  0.50000000  1
  Li  Li26  1  0.29228512  0.89652195  0.50000000  1
  Li  Li27  1  0.70771488  0.10347805  0.50000000  1
  Li  Li28  1  0.00000000  0.50000000  0.79647572  1
  Li  Li29  1  0.50000000  0.00000000  0.20352428  1
  Li  Li30  1  0.00000000  0.50000000  0.20352428  1
  Li  Li31  1  0.50000000  0.00000000  0.79647572  1
