# generated using pymatgen
data_LiF
_symmetry_space_group_name_H-M   'P 1'
_cell_length_a   12.66044723
_cell_length_b   12.66044723
_cell_length_c   6.08956390
_cell_angle_alpha   90.00000000
_cell_angle_beta   90.00000000
_cell_angle_gamma   120.00000000
_symmetry_Int_Tables_number   1
_chemical_formula_structural   LiF
_chemical_formula_sum   'Li39 F39'
_cell_volume   845.30788196
_cell_formula_units_Z   39
loop_
 _symmetry_equiv_pos_site_id
 _symmetry_equiv_pos_as_xyz
  1  'x, y, z'
loop_
 _atom_site_type_symbol
 _atom_site_label
 _atom_site_symmetry_multiplicity
 _atom_site_fract_x
 _atom_site_fract_y
 _atom_site_fract_z
 _atom_site_occupancy
  F  F0  1  0.33333333  0.66666667  0.81582088  1
  F  F1  1  0.33333333  0.66666667  0.18417912  1
  F  F2  1  0.66666667  0.33333333  0.18417912  1
  F  F3  1  0.66666667  0.33333333  0.81582088  1
  F  F4  1  0.33333333  0.66666667  0.50000000  1
  F  F5  1  0.66666667  0.33333333  0.50000000  1
  F  F6  1  0.61608886  0.42545708  0.25876410  1
  F  F7  1  0.57454292  0.19063178  0.25876410  1
  F  F8  1  0.80936822  0.38391114  0.25876410  1
  F  F9  1  0.61608886  0.42545708  0.74123590  1
  F  F10  1  0.57454292  0.19063178  0.74123590  1
  F  F11  1  0.80936822  0.38391114  0.74123590  1
  F  F12  1  0.42545708  0.61608886  0.74123590  1
  F  F13  1  0.19063178  0.57454292  0.74123590  1
  F  F14  1  0.38391114  0.80936822  0.74123590  1
  F  F15  1  0.42545708  0.61608886  0.25876410  1
  F  F16  1  0.19063178  0.57454292  0.25876410  1
  F  F17  1  0.38391114  0.80936822  0.25876410  1
  F  F18  1  0.00000000  0.00000000  0.00000000  1
  F  F19  1  0.61547245  -0.00000000  -0.00000000  1
  F  F20  1  0.00000000  0.61547245  0.00000000  1
  F  F21  1  0.38452755  0.38452755  -0.00000000  1
  F  F22  1  0.26402784  0.56719791  0.72712699  1
  F  F23  1  0.43280209  0.69682994  0.72712699  1
  F  F24  1  0.30317006  0.73597216  0.72712699  1
  F  F25  1  0.26402784  0.56719791  0.27287301  1
  F  F26  1  0.43280209  0.69682994  0.27287301  1
  F  F27  1  0.30317006  0.73597216  0.27287301  1
  F  F28  1  0.56719791  0.26402784  0.27287301  1
  F  F29  1  0.69682994  0.43280209  0.27287301  1
  F  F30  1  0.73597216  0.30317006  0.27287301  1
  F  F31  1  0.56719791  0.26402784  0.72712699  1
  F  F32  1  0.69682994  0.43280209  0.72712699  1
  F  F33  1  0.73597216  0.30317006  0.72712699  1
  F  F34  1  0.56956168  0.00000000  -0.00000000  1
  F  F35  1  0.00000000  0.56956168  0.00000000  1
  F  F36  1  0.43043832  0.43043832  -0.00000000  1
  F  F37  1  0.00000000  0.00000000  0.21361572  1
  F  F38  1  0.00000000  0.00000000  0.78638428  1
  Li  Li39  1  0.37161002  0.85724671  0.50000000  1
  Li  Li40  1  0.14275329  0.51436331  0.50000000  1
  Li  Li41  1  0.48563669  0.62838998  0.50000000  1
  Li  Li42  1  0.85724671  0.37161002  0.50000000  1
  Li  Li43  1  0.51436331  0.14275329  0.50000000  1
  Li  Li44  1  0.62838998  0.48563669  0.50000000  1
  Li  Li45  1  0.13911179  0.20063631  0.20840828  1
  Li  Li46  1  -0.20063631  -0.06152451  0.20840828  1
  Li  Li47  1  0.06152451  -0.13911179  0.20840828  1
  Li  Li48  1  0.13911179  0.20063631  -0.20840828  1
  Li  Li49  1  -0.20063631  -0.06152451  -0.20840828  1
  Li  Li50  1  0.06152451  -0.13911179  -0.20840828  1
  Li  Li51  1  0.20063631  0.13911179  -0.20840828  1
  Li  Li52  1  -0.06152451  -0.20063631  -0.20840828  1
  Li  Li53  1  -0.13911179  0.06152451  -0.20840828  1
  Li  Li54  1  0.20063631  0.13911179  0.20840828  1
  Li  Li55  1  -0.06152451  -0.20063631  0.20840828  1
  Li  Li56  1  -0.13911179  0.06152451  0.20840828  1
  Li  Li57  1  0.60633615  0.89630020  0.50000000  1
  Li  Li58  1  0.10369980  0.71003595  0.50000000  1
  Li  Li59  1  0.28996405  0.39366385  0.50000000  1
  Li  Li60  1  0.89630020  0.60633615  0.50000000  1
  Li  Li61  1  0.71003595  0.10369980  0.50000000  1
  Li  Li62  1  0.39366385  0.28996405  0.50000000  1
  Li  Li63  1  0.80957773  0.61139726  0.00000000  1
  Li  Li64  1  0.38860274  0.19818047  -0.00000000  1
  Li  Li65  1  0.80181953  0.19042227  -0.00000000  1
  Li  Li66  1  0.61139726  0.80957773  0.00000000  1
  Li  Li67  1  0.19818047  0.38860274  0.00000000  1
  Li  Li68  1  0.19042227  0.80181953  -0.00000000  1
  Li  Li69  1  0.33333333  0.66666667  0.00000000  1
  Li  Li70  1  0.66666667  0.33333333  0.00000000  1
  Li  Li71  1  0.00000000  0.00000000  0.50000000  1
  Li  Li72  1  0.37952715  0.00000000  0.82921501  1
  Li  Li73  1  0.00000000  0.37952715  0.82921501  1
  Li  Li74  1  0.62047285  0.62047285  0.82921501  1
  Li  Li75  1  0.37952715  0.00000000  0.17078499  1
  Li  Li76  1  0.00000000  0.37952715  0.17078499  1
  Li  Li77  1  0.62047285  0.62047285  0.17078499  1
