# generated using pymatgen
data_Li4TeF2
_symmetry_space_group_name_H-M   'P 1'
_cell_length_a   8.66506622
_cell_length_b   8.66506622
_cell_length_c   35.90077530
_cell_angle_alpha   90.00000000
_cell_angle_beta   90.00000000
_cell_angle_gamma   120.00000000
_symmetry_Int_Tables_number   1
_chemical_formula_structural   Li4TeF2
_chemical_formula_sum   'Li96 Te24 F48'
_cell_volume   2334.41589447
_cell_formula_units_Z   24
loop_
 _symmetry_equiv_pos_site_id
 _symmetry_equiv_pos_as_xyz
  1  'x, y, z'
loop_
 _atom_site_type_symbol
 _atom_site_label
 _atom_site_symmetry_multiplicity
 _atom_site_fract_x
 _atom_site_fract_y
 _atom_site_fract_z
 _atom_site_occupancy
  F  F0  1  0.21204849  0.95328228  0.28685245  1
  F  F1  1  -0.95328228  -0.74123379  0.28685245  1
  F  F2  1  0.74123379  -0.21204849  0.28685245  1
  F  F3  1  0.95328228  0.21204849  0.21314755  1
  F  F4  1  -0.74123379  -0.95328228  0.21314755  1
  F  F5  1  -0.21204849  0.74123379  0.21314755  1
  F  F6  1  -0.21204849  -0.95328228  -0.28685245  1
  F  F7  1  0.95328228  0.74123379  -0.28685245  1
  F  F8  1  -0.74123379  0.21204849  -0.28685245  1
  F  F9  1  -0.95328228  -0.21204849  0.78685245  1
  F  F10  1  0.74123379  0.95328228  0.78685245  1
  F  F11  1  0.21204849  -0.74123379  0.78685245  1
  F  F12  1  0.87871516  1.28661562  0.62018578  1
  F  F13  1  -0.28661562  -0.40790046  0.62018578  1
  F  F14  1  1.40790046  0.12128484  0.62018578  1
  F  F15  1  1.61994895  0.54538182  0.54648089  1
  F  F16  1  -0.07456713  -0.61994895  0.54648089  1
  F  F17  1  0.45461818  1.07456713  0.54648089  1
  F  F18  1  0.45461818  -0.61994895  0.04648089  1
  F  F19  1  1.61994895  1.07456713  0.04648089  1
  F  F20  1  -0.07456713  0.54538182  0.04648089  1
  F  F21  1  -0.28661562  0.12128484  1.12018578  1
  F  F22  1  1.40790046  1.28661562  1.12018578  1
  F  F23  1  0.87871516  -0.40790046  1.12018578  1
  F  F24  1  0.54538182  1.61994895  0.95351911  1
  F  F25  1  -0.61994895  -0.07456713  0.95351911  1
  F  F26  1  1.07456713  0.45461818  0.95351911  1
  F  F27  1  1.28661562  0.87871516  0.87981422  1
  F  F28  1  -0.40790046  -0.28661562  0.87981422  1
  F  F29  1  0.12128484  1.40790046  0.87981422  1
  F  F30  1  0.12128484  -0.28661562  0.37981422  1
  F  F31  1  1.28661562  1.40790046  0.37981422  1
  F  F32  1  -0.40790046  0.87871516  0.37981422  1
  F  F33  1  -0.61994895  0.45461818  1.45351911  1
  F  F34  1  1.07456713  1.61994895  1.45351911  1
  F  F35  1  0.54538182  -0.07456713  1.45351911  1
  F  F36  1  0.00000000  0.00000000  0.81187503  1
  F  F37  1  0.00000000  0.00000000  0.68812497  1
  F  F38  1  0.00000000  0.00000000  0.18812497  1
  F  F39  1  0.00000000  0.00000000  0.31187503  1
  F  F40  1  0.66666667  0.33333333  0.14520836  1
  F  F41  1  0.66666667  0.33333333  0.02145831  1
  F  F42  1  0.66666667  0.33333333  0.52145831  1
  F  F43  1  0.66666667  0.33333333  0.64520836  1
  F  F44  1  0.33333333  0.66666667  0.47854169  1
  F  F45  1  0.33333333  0.66666667  0.35479164  1
  F  F46  1  0.33333333  0.66666667  0.85479164  1
  F  F47  1  0.33333333  0.66666667  0.97854169  1
  Li  Li48  1  0.69110442  0.74086948  0.13654915  1
  Li  Li49  1  0.25913052  0.95023494  0.13654915  1
  Li  Li50  1  0.04976506  0.30889558  0.13654915  1
  Li  Li51  1  0.74086948  0.69110442  0.36345085  1
  Li  Li52  1  0.95023494  0.25913052  0.36345085  1
  Li  Li53  1  0.30889558  0.04976506  0.36345085  1
  Li  Li54  1  0.30889558  0.25913052  0.86345085  1
  Li  Li55  1  0.74086948  0.04976506  0.86345085  1
  Li  Li56  1  0.95023494  0.69110442  0.86345085  1
  Li  Li57  1  0.25913052  0.30889558  0.63654915  1
  Li  Li58  1  0.04976506  0.74086948  0.63654915  1
  Li  Li59  1  0.69110442  0.95023494  0.63654915  1
  Li  Li60  1  0.35777109  0.07420282  0.46988248  1
  Li  Li61  1  0.92579718  0.28356827  0.46988248  1
  Li  Li62  1  0.71643173  0.64222891  0.46988248  1
  Li  Li63  1  0.40753615  0.02443775  0.69678419  1
  Li  Li64  1  0.61690160  0.59246385  0.69678419  1
  Li  Li65  1  0.97556225  0.38309840  0.69678419  1
  Li  Li66  1  0.97556225  0.59246385  0.19678419  1
  Li  Li67  1  0.40753615  0.38309840  0.19678419  1
  Li  Li68  1  0.61690160  0.02443775  0.19678419  1
  Li  Li69  1  0.92579718  0.64222891  0.96988248  1
  Li  Li70  1  0.71643173  0.07420282  0.96988248  1
  Li  Li71  1  0.35777109  0.28356827  0.96988248  1
  Li  Li72  1  0.02443775  0.40753615  0.80321581  1
  Li  Li73  1  0.59246385  0.61690160  0.80321581  1
  Li  Li74  1  0.38309840  0.97556225  0.80321581  1
  Li  Li75  1  0.07420282  0.35777109  0.03011752  1
  Li  Li76  1  0.28356827  0.92579718  0.03011752  1
  Li  Li77  1  0.64222891  0.71643173  0.03011752  1
  Li  Li78  1  0.64222891  0.92579718  0.53011752  1
  Li  Li79  1  0.07420282  0.71643173  0.53011752  1
  Li  Li80  1  0.28356827  0.35777109  0.53011752  1
  Li  Li81  1  0.59246385  0.97556225  0.30321581  1
  Li  Li82  1  0.38309840  0.40753615  0.30321581  1
  Li  Li83  1  0.02443775  0.61690160  0.30321581  1
  Li  Li84  1  0.24295470  0.00000000  0.25000000  1
  Li  Li85  1  0.00000000  0.24295470  0.25000000  1
  Li  Li86  1  0.75704530  0.75704530  0.25000000  1
  Li  Li87  1  0.75704530  0.00000000  0.75000000  1
  Li  Li88  1  0.00000000  0.75704530  0.75000000  1
  Li  Li89  1  0.24295470  0.24295470  0.75000000  1
  Li  Li90  1  0.90962137  0.33333333  0.58333333  1
  Li  Li91  1  0.66666667  0.57628804  0.58333333  1
  Li  Li92  1  0.42371196  0.09037863  0.58333333  1
  Li  Li93  1  0.42371196  0.33333333  0.08333333  1
  Li  Li94  1  0.66666667  0.09037863  0.08333333  1
  Li  Li95  1  0.90962137  0.57628804  0.08333333  1
  Li  Li96  1  0.57628804  0.66666667  0.91666667  1
  Li  Li97  1  0.33333333  0.90962137  0.91666667  1
  Li  Li98  1  0.09037863  0.42371196  0.91666667  1
  Li  Li99  1  0.09037863  0.66666667  0.41666667  1
  Li  Li100  1  0.33333333  0.42371196  0.41666667  1
  Li  Li101  1  0.57628804  0.90962137  0.41666667  1
  Li  Li102  1  0.89768097  0.00000000  0.25000000  1
  Li  Li103  1  0.00000000  0.89768097  0.25000000  1
  Li  Li104  1  0.10231903  0.10231903  0.25000000  1
  Li  Li105  1  0.10231903  0.00000000  0.75000000  1
  Li  Li106  1  0.00000000  0.10231903  0.75000000  1
  Li  Li107  1  0.89768097  0.89768097  0.75000000  1
  Li  Li108  1  0.56434764  0.33333333  0.58333333  1
  Li  Li109  1  0.66666667  0.23101430  0.58333333  1
  Li  Li110  1  0.76898570  0.43565236  0.58333333  1
  Li  Li111  1  0.76898570  0.33333333  0.08333333  1
  Li  Li112  1  0.66666667  0.43565236  0.08333333  1
  Li  Li113  1  0.56434764  0.23101430  0.08333333  1
  Li  Li114  1  0.23101430  0.66666667  0.91666667  1
  Li  Li115  1  0.33333333  0.56434764  0.91666667  1
  Li  Li116  1  0.43565236  0.76898570  0.91666667  1
  Li  Li117  1  0.43565236  0.66666667  0.41666667  1
  Li  Li118  1  0.33333333  0.76898570  0.41666667  1
  Li  Li119  1  0.23101430  0.56434764  0.41666667  1
  Li  Li120  1  0.50000000  0.00000000  -0.00000000  1
  Li  Li121  1  0.00000000  0.50000000  0.00000000  1
  Li  Li122  1  0.50000000  0.50000000  0.00000000  1
  Li  Li123  1  0.00000000  0.50000000  0.50000000  1
  Li  Li124  1  0.50000000  0.00000000  0.50000000  1
  Li  Li125  1  0.50000000  0.50000000  0.50000000  1
  Li  Li126  1  0.16666667  0.33333333  0.33333333  1
  Li  Li127  1  0.66666667  0.83333333  0.33333333  1
  Li  Li128  1  0.16666667  0.83333333  0.33333333  1
  Li  Li129  1  0.66666667  0.83333333  0.83333333  1
  Li  Li130  1  0.16666667  0.33333333  0.83333333  1
  Li  Li131  1  0.16666667  0.83333333  0.83333333  1
  Li  Li132  1  0.83333333  0.66666667  0.66666667  1
  Li  Li133  1  0.33333333  0.16666667  0.66666667  1
  Li  Li134  1  0.83333333  0.16666667  0.66666667  1
  Li  Li135  1  0.33333333  0.16666667  0.16666667  1
  Li  Li136  1  0.83333333  0.66666667  0.16666667  1
  Li  Li137  1  0.83333333  0.16666667  0.16666667  1
  Li  Li138  1  0.00000000  0.00000000  0.00000000  1
  Li  Li139  1  0.00000000  0.00000000  0.50000000  1
  Li  Li140  1  0.66666667  0.33333333  0.33333333  1
  Li  Li141  1  0.66666667  0.33333333  0.83333333  1
  Li  Li142  1  0.33333333  0.66666667  0.66666667  1
  Li  Li143  1  0.33333333  0.66666667  0.16666667  1
  Te  Te144  1  0.00000000  0.00000000  0.39061954  1
  Te  Te145  1  0.00000000  0.00000000  0.10938046  1
  Te  Te146  1  0.00000000  0.00000000  0.60938046  1
  Te  Te147  1  0.00000000  0.00000000  0.89061954  1
  Te  Te148  1  0.66666667  0.33333333  0.72395287  1
  Te  Te149  1  0.66666667  0.33333333  0.44271379  1
  Te  Te150  1  0.66666667  0.33333333  0.94271379  1
  Te  Te151  1  0.66666667  0.33333333  0.22395287  1
  Te  Te152  1  0.33333333  0.66666667  0.05728621  1
  Te  Te153  1  0.33333333  0.66666667  0.77604713  1
  Te  Te154  1  0.33333333  0.66666667  0.27604713  1
  Te  Te155  1  0.33333333  0.66666667  0.55728621  1
  Te  Te156  1  0.00000000  0.00000000  0.54072900  1
  Te  Te157  1  0.00000000  0.00000000  0.95927100  1
  Te  Te158  1  0.00000000  0.00000000  0.45927100  1
  Te  Te159  1  0.00000000  0.00000000  0.04072900  1
  Te  Te160  1  0.66666667  0.33333333  0.87406233  1
  Te  Te161  1  0.66666667  0.33333333  0.29260433  1
  Te  Te162  1  0.66666667  0.33333333  0.79260433  1
  Te  Te163  1  0.66666667  0.33333333  0.37406233  1
  Te  Te164  1  0.33333333  0.66666667  0.20739567  1
  Te  Te165  1  0.33333333  0.66666667  0.62593767  1
  Te  Te166  1  0.33333333  0.66666667  0.12593767  1
  Te  Te167  1  0.33333333  0.66666667  0.70739567  1
