# generated using pymatgen
data_Li2Y(P2Se)2
_symmetry_space_group_name_H-M   'P 1'
_cell_length_a   5.96331754
_cell_length_b   6.16622348
_cell_length_c   7.69806625
_cell_angle_alpha   93.69871011
_cell_angle_beta   98.05502166
_cell_angle_gamma   104.85624847
_symmetry_Int_Tables_number   1
_chemical_formula_structural   Li2Y(P2Se)2
_chemical_formula_sum   'Li2 Y1 P4 Se2'
_cell_volume   269.40908001
_cell_formula_units_Z   1
loop_
 _symmetry_equiv_pos_site_id
 _symmetry_equiv_pos_as_xyz
  1  'x, y, z'
loop_
 _atom_site_type_symbol
 _atom_site_label
 _atom_site_symmetry_multiplicity
 _atom_site_fract_x
 _atom_site_fract_y
 _atom_site_fract_z
 _atom_site_occupancy
  P  P0  1  0.00000000  0.00000000  0.00000000  1
  P  P1  1  0.33300000  0.66700000  0.25000000  1
  P  P2  1  0.66700000  0.33300000  0.50000000  1
  P  P3  1  0.00000000  0.00000000  0.75000000  1
  Se  Se4  1  0.92967534  0.50362301  0.81928654  1
  Se  Se5  1  0.29201801  0.78842969  0.94145159  1
  Li  Li6  1  0.72377701  0.79269665  0.44735628  1
  Li  Li7  1  0.79277156  0.91964304  0.88563896  1
  Y  Y8  1  0.85736382  0.35183472  0.37755045  1
