# generated using pymatgen
data_LiF
_symmetry_space_group_name_H-M   'P 1'
_cell_length_a   6.29150845
_cell_length_b   6.29150845
_cell_length_c   22.53955850
_cell_angle_alpha   90.00000000
_cell_angle_beta   90.00000000
_cell_angle_gamma   120.00000000
_symmetry_Int_Tables_number   1
_chemical_formula_structural   LiF
_chemical_formula_sum   'Li23 F23'
_cell_volume   772.65497455
_cell_formula_units_Z   23
loop_
 _symmetry_equiv_pos_site_id
 _symmetry_equiv_pos_as_xyz
  1  'x, y, z'
loop_
 _atom_site_type_symbol
 _atom_site_label
 _atom_site_symmetry_multiplicity
 _atom_site_fract_x
 _atom_site_fract_y
 _atom_site_fract_z
 _atom_site_occupancy
  F  F0  1  0.95548783  0.60234606  0.00123054  1
  F  F1  1  0.39765394  0.35314178  0.00123054  1
  F  F2  1  0.64685822  0.04451217  0.00123054  1
  F  F3  1  0.39765394  0.04451217  0.99876946  1
  F  F4  1  0.64685822  0.60234606  0.99876946  1
  F  F5  1  0.95548783  0.35314178  0.99876946  1
  F  F6  1  0.66666667  0.33333333  0.33298895  1
  F  F7  1  0.66666667  0.33333333  0.66701105  1
  F  F8  1  0.71097625  0.25362569  0.32964440  1
  F  F9  1  0.74637431  0.45735055  0.32964440  1
  F  F10  1  0.54264945  0.28902375  0.32964440  1
  F  F11  1  0.74637431  0.28902375  0.67035560  1
  F  F12  1  0.54264945  0.25362569  0.67035560  1
  F  F13  1  0.71097625  0.45735055  0.67035560  1
  F  F14  1  0.33333333  0.66666667  0.86626260  1
  F  F15  1  0.33333333  0.66666667  0.13373740  1
  F  F16  1  0.38776565  0.61223435  0.50000000  1
  F  F17  1  0.38776565  0.77553130  0.50000000  1
  F  F18  1  0.22446870  0.61223435  0.50000000  1
  F  F19  1  0.33333333  0.66666667  -0.00000000  1
  F  F20  1  0.14599751  0.85400249  0.00000000  1
  F  F21  1  0.14599751  0.29199501  0.00000000  1
  F  F22  1  0.70800499  0.85400249  -0.00000000  1
  Li  Li23  1  0.66666667  0.33333333  0.41719556  1
  Li  Li24  1  0.66666667  0.33333333  0.58280444  1
  Li  Li25  1  0.00000000  0.00000000  0.55072485  1
  Li  Li26  1  0.00000000  0.00000000  0.44927515  1
  Li  Li27  1  0.13515038  0.04130758  0.36282368  1
  Li  Li28  1  -0.04130758  0.09384280  0.36282368  1
  Li  Li29  1  -0.09384280  -0.13515038  0.36282368  1
  Li  Li30  1  -0.04130758  -0.13515038  -0.36282368  1
  Li  Li31  1  -0.09384280  0.04130758  -0.36282368  1
  Li  Li32  1  0.13515038  0.09384280  -0.36282368  1
  Li  Li33  1  0.16987273  0.45295101  0.25056429  1
  Li  Li34  1  0.54704899  0.71692171  0.25056429  1
  Li  Li35  1  0.28307829  0.83012727  0.25056429  1
  Li  Li36  1  0.54704899  0.83012727  0.74943571  1
  Li  Li37  1  0.28307829  0.45295101  0.74943571  1
  Li  Li38  1  0.16987273  0.71692171  0.74943571  1
  Li  Li39  1  0.01642349  0.73856582  0.27532035  1
  Li  Li40  1  0.26143418  0.27785767  0.27532035  1
  Li  Li41  1  0.72214233  0.98357651  0.27532035  1
  Li  Li42  1  0.26143418  0.98357651  0.72467965  1
  Li  Li43  1  0.72214233  0.73856582  0.72467965  1
  Li  Li44  1  0.01642349  0.27785767  0.72467965  1
  Li  Li45  1  0.66666667  0.33333333  -0.00000000  1
