# generated using pymatgen
data_LiYAs2P
_symmetry_space_group_name_H-M   'P 1'
_cell_length_a   4.05042568
_cell_length_b   4.23028281
_cell_length_c   6.70122253
_cell_angle_alpha   96.41083589
_cell_angle_beta   103.96146778
_cell_angle_gamma   115.74977983
_symmetry_Int_Tables_number   1
_chemical_formula_structural   LiYAs2P
_chemical_formula_sum   'Li2 Y2 As4 P2'
_cell_volume   97.23814931
_cell_formula_units_Z   2
loop_
 _symmetry_equiv_pos_site_id
 _symmetry_equiv_pos_as_xyz
  1  'x, y, z'
loop_
 _atom_site_type_symbol
 _atom_site_label
 _atom_site_symmetry_multiplicity
 _atom_site_fract_x
 _atom_site_fract_y
 _atom_site_fract_z
 _atom_site_occupancy
  P  P0  1  0.00000000  0.00000000  0.00000000  1
  P  P1  1  0.50000000  0.50000000  0.50000000  1
  As  As2  1  0.50000000  0.50000000  0.00000000  1
  As  As3  1  0.50000000  0.00000000  0.50000000  1
  As  As4  1  0.00000000  0.50000000  0.50000000  1
  As  As5  1  0.12319031  0.64363265  0.64832211  1
  Li  Li6  1  0.87113682  0.93016299  0.78224719  1
  Li  Li7  1  0.31859101  0.06752093  0.00442474  1
  Y  Y8  1  0.03493636  0.08595469  0.09574256  1
  Y  Y9  1  0.87317506  0.45759537  0.97281674  1
