# generated using pymatgen
data_Li3Y2P3Se
_symmetry_space_group_name_H-M   'P 1'
_cell_length_a   5.99918172
_cell_length_b   6.11713648
_cell_length_c   7.36309063
_cell_angle_alpha   92.65898270
_cell_angle_beta   95.95951854
_cell_angle_gamma   100.88390153
_symmetry_Int_Tables_number   1
_chemical_formula_structural   Li3Y2P3Se
_chemical_formula_sum   'Li3 Y2 P3 Se1'
_cell_volume   263.31150698
_cell_formula_units_Z   1
loop_
 _symmetry_equiv_pos_site_id
 _symmetry_equiv_pos_as_xyz
  1  'x, y, z'
loop_
 _atom_site_type_symbol
 _atom_site_label
 _atom_site_symmetry_multiplicity
 _atom_site_fract_x
 _atom_site_fract_y
 _atom_site_fract_z
 _atom_site_occupancy
  Se  Se0  1  0.00000000  0.00000000  0.00000000  1
  P  P1  1  0.50000000  0.50000000  0.50000000  1
  P  P2  1  0.25000000  0.25000000  0.25000000  1
  P  P3  1  0.75000000  0.25000000  0.00000000  1
  Li  Li4  1  0.25000000  0.75000000  0.50000000  1
  Li  Li5  1  0.95123530  0.86248583  0.54422420  1
  Li  Li6  1  0.81639316  0.10995398  0.96496239  1
  Y  Y7  1  0.98295655  0.58870349  0.30931869  1
  Y  Y8  1  0.82905388  0.78953550  0.88443828  1
