# generated using pymatgen
data_LiF
_symmetry_space_group_name_H-M   'P 1'
_cell_length_a   7.54112981
_cell_length_b   7.54112981
_cell_length_c   6.01934262
_cell_angle_alpha   90.00000000
_cell_angle_beta   90.00000000
_cell_angle_gamma   90.00000000
_symmetry_Int_Tables_number   1
_chemical_formula_structural   LiF
_chemical_formula_sum   'Li20 F20'
_cell_volume   342.31182157
_cell_formula_units_Z   20
loop_
 _symmetry_equiv_pos_site_id
 _symmetry_equiv_pos_as_xyz
  1  'x, y, z'
loop_
 _atom_site_type_symbol
 _atom_site_label
 _atom_site_symmetry_multiplicity
 _atom_site_fract_x
 _atom_site_fract_y
 _atom_site_fract_z
 _atom_site_occupancy
  F  F0  1  0.17000184  0.71130993  0.85465277  1
  F  F1  1  -0.17000184  -0.71130993  0.85465277  1
  F  F2  1  -0.71130993  0.17000184  0.85465277  1
  F  F3  1  0.71130993  -0.17000184  0.85465277  1
  F  F4  1  -0.17000184  0.71130993  -0.85465277  1
  F  F5  1  0.17000184  -0.71130993  -0.85465277  1
  F  F6  1  0.71130993  0.17000184  -0.85465277  1
  F  F7  1  -0.71130993  -0.17000184  -0.85465277  1
  F  F8  1  -0.17000184  -0.71130993  -0.85465277  1
  F  F9  1  0.17000184  0.71130993  -0.85465277  1
  F  F10  1  0.71130993  -0.17000184  -0.85465277  1
  F  F11  1  -0.71130993  0.17000184  -0.85465277  1
  F  F12  1  0.17000184  -0.71130993  0.85465277  1
  F  F13  1  -0.17000184  0.71130993  0.85465277  1
  F  F14  1  -0.71130993  -0.17000184  0.85465277  1
  F  F15  1  0.71130993  0.17000184  0.85465277  1
  F  F16  1  0.45016867  -0.00000000  0.50000000  1
  F  F17  1  0.54983133  -0.00000000  0.50000000  1
  F  F18  1  0.00000000  0.45016867  0.50000000  1
  F  F19  1  0.00000000  0.54983133  0.50000000  1
  Li  Li20  1  0.00000000  0.50000000  0.68012709  1
  Li  Li21  1  0.50000000  0.00000000  0.68012709  1
  Li  Li22  1  0.00000000  0.50000000  0.31987291  1
  Li  Li23  1  0.50000000  0.00000000  0.31987291  1
  Li  Li24  1  0.79289891  0.79289891  0.37524150  1
  Li  Li25  1  0.20710109  0.20710109  0.37524150  1
  Li  Li26  1  0.20710109  0.79289891  0.37524150  1
  Li  Li27  1  0.79289891  0.20710109  0.37524150  1
  Li  Li28  1  0.20710109  0.79289891  0.62475850  1
  Li  Li29  1  0.79289891  0.20710109  0.62475850  1
  Li  Li30  1  0.79289891  0.79289891  0.62475850  1
  Li  Li31  1  0.20710109  0.20710109  0.62475850  1
  Li  Li32  1  0.50000000  0.50000000  0.00000000  1
  Li  Li33  1  0.23825537  -0.00000000  0.00000000  1
  Li  Li34  1  0.76174463  -0.00000000  0.00000000  1
  Li  Li35  1  0.00000000  0.23825537  0.00000000  1
  Li  Li36  1  0.00000000  0.76174463  0.00000000  1
  Li  Li37  1  0.00000000  0.00000000  0.50000000  1
  Li  Li38  1  0.00000000  0.00000000  0.14079433  1
  Li  Li39  1  0.00000000  0.00000000  0.85920567  1
