# generated using pymatgen
data_Li4TeF2
_symmetry_space_group_name_H-M   'P 1'
_cell_length_a   12.22711051
_cell_length_b   12.22711051
_cell_length_c   30.86271834
_cell_angle_alpha   90.00000000
_cell_angle_beta   90.00000000
_cell_angle_gamma   120.00000000
_symmetry_Int_Tables_number   1
_chemical_formula_structural   Li4TeF2
_chemical_formula_sum   'Li96 Te24 F48'
_cell_volume   3995.88041134
_cell_formula_units_Z   24
loop_
 _symmetry_equiv_pos_site_id
 _symmetry_equiv_pos_as_xyz
  1  'x, y, z'
loop_
 _atom_site_type_symbol
 _atom_site_label
 _atom_site_symmetry_multiplicity
 _atom_site_fract_x
 _atom_site_fract_y
 _atom_site_fract_z
 _atom_site_occupancy
  F  F0  1  0.00000000  0.00000000  0.52047326  1
  F  F1  1  0.00000000  0.00000000  0.97952674  1
  F  F2  1  0.00000000  0.00000000  0.47952674  1
  F  F3  1  0.00000000  0.00000000  0.02047326  1
  F  F4  1  0.66666667  0.33333333  0.85380659  1
  F  F5  1  0.66666667  0.33333333  0.31286008  1
  F  F6  1  0.66666667  0.33333333  0.81286008  1
  F  F7  1  0.66666667  0.33333333  0.35380659  1
  F  F8  1  0.33333333  0.66666667  0.18713992  1
  F  F9  1  0.33333333  0.66666667  0.64619341  1
  F  F10  1  0.33333333  0.66666667  0.14619341  1
  F  F11  1  0.33333333  0.66666667  0.68713992  1
  F  F12  1  0.49647361  0.34163135  0.06550196  1
  F  F13  1  -0.34163135  0.15484226  0.06550196  1
  F  F14  1  -0.15484226  -0.49647361  0.06550196  1
  F  F15  1  0.34163135  0.49647361  0.43449804  1
  F  F16  1  0.15484226  -0.34163135  0.43449804  1
  F  F17  1  -0.49647361  -0.15484226  0.43449804  1
  F  F18  1  -0.49647361  -0.34163135  -0.06550196  1
  F  F19  1  0.34163135  -0.15484226  -0.06550196  1
  F  F20  1  0.15484226  0.49647361  -0.06550196  1
  F  F21  1  -0.34163135  -0.49647361  0.56550196  1
  F  F22  1  -0.15484226  0.34163135  0.56550196  1
  F  F23  1  0.49647361  0.15484226  0.56550196  1
  F  F24  1  1.16314028  0.67496468  0.39883529  1
  F  F25  1  0.32503532  0.48817560  0.39883529  1
  F  F26  1  0.51182440  -0.16314028  0.39883529  1
  F  F27  1  1.00829802  0.82980694  0.76783137  1
  F  F28  1  0.82150893  -0.00829802  0.76783137  1
  F  F29  1  0.17019306  0.17849107  0.76783137  1
  F  F30  1  0.17019306  -0.00829802  0.26783137  1
  F  F31  1  1.00829802  0.17849107  0.26783137  1
  F  F32  1  0.82150893  0.82980694  0.26783137  1
  F  F33  1  0.32503532  -0.16314028  0.89883529  1
  F  F34  1  0.51182440  0.67496468  0.89883529  1
  F  F35  1  1.16314028  0.48817560  0.89883529  1
  F  F36  1  0.82980694  1.00829802  0.73216863  1
  F  F37  1  -0.00829802  0.82150893  0.73216863  1
  F  F38  1  0.17849107  0.17019306  0.73216863  1
  F  F39  1  0.67496468  1.16314028  1.10116471  1
  F  F40  1  0.48817560  0.32503532  1.10116471  1
  F  F41  1  -0.16314028  0.51182440  1.10116471  1
  F  F42  1  -0.16314028  0.32503532  0.60116471  1
  F  F43  1  0.67496468  0.51182440  0.60116471  1
  F  F44  1  0.48817560  1.16314028  0.60116471  1
  F  F45  1  -0.00829802  0.17019306  1.23216863  1
  F  F46  1  0.17849107  1.00829802  1.23216863  1
  F  F47  1  0.82980694  0.82150893  1.23216863  1
  Li  Li48  1  0.17206123  0.24867337  0.48714555  1
  Li  Li49  1  0.75132663  0.92338786  0.48714555  1
  Li  Li50  1  0.07661214  0.82793877  0.48714555  1
  Li  Li51  1  0.24867337  0.17206123  0.01285445  1
  Li  Li52  1  0.92338786  0.75132663  0.01285445  1
  Li  Li53  1  0.82793877  0.07661214  0.01285445  1
  Li  Li54  1  0.82793877  0.75132663  0.51285445  1
  Li  Li55  1  0.24867337  0.07661214  0.51285445  1
  Li  Li56  1  0.92338786  0.17206123  0.51285445  1
  Li  Li57  1  0.75132663  0.82793877  0.98714555  1
  Li  Li58  1  0.07661214  0.24867337  0.98714555  1
  Li  Li59  1  0.17206123  0.92338786  0.98714555  1
  Li  Li60  1  0.83872789  0.58200670  0.82047888  1
  Li  Li61  1  0.41799330  0.25672119  0.82047888  1
  Li  Li62  1  0.74327881  0.16127211  0.82047888  1
  Li  Li63  1  0.91534004  0.50539456  0.34618779  1
  Li  Li64  1  0.59005452  0.08465996  0.34618779  1
  Li  Li65  1  0.49460544  0.40994548  0.34618779  1
  Li  Li66  1  0.49460544  0.08465996  0.84618779  1
  Li  Li67  1  0.91534004  0.40994548  0.84618779  1
  Li  Li68  1  0.59005452  0.50539456  0.84618779  1
  Li  Li69  1  0.41799330  0.16127211  0.32047888  1
  Li  Li70  1  0.74327881  0.58200670  0.32047888  1
  Li  Li71  1  0.83872789  0.25672119  0.32047888  1
  Li  Li72  1  0.50539456  0.91534004  0.15381221  1
  Li  Li73  1  0.08465996  0.59005452  0.15381221  1
  Li  Li74  1  0.40994548  0.49460544  0.15381221  1
  Li  Li75  1  0.58200670  0.83872789  0.67952112  1
  Li  Li76  1  0.25672119  0.41799330  0.67952112  1
  Li  Li77  1  0.16127211  0.74327881  0.67952112  1
  Li  Li78  1  0.16127211  0.41799330  0.17952112  1
  Li  Li79  1  0.58200670  0.74327881  0.17952112  1
  Li  Li80  1  0.25672119  0.83872789  0.17952112  1
  Li  Li81  1  0.08465996  0.49460544  0.65381221  1
  Li  Li82  1  0.40994548  0.91534004  0.65381221  1
  Li  Li83  1  0.50539456  0.59005452  0.65381221  1
  Li  Li84  1  0.00000000  0.00000000  0.43530977  1
  Li  Li85  1  0.00000000  0.00000000  0.06469023  1
  Li  Li86  1  0.00000000  0.00000000  0.56469023  1
  Li  Li87  1  0.00000000  0.00000000  0.93530977  1
  Li  Li88  1  0.66666667  0.33333333  0.76864310  1
  Li  Li89  1  0.66666667  0.33333333  0.39802356  1
  Li  Li90  1  0.66666667  0.33333333  0.89802356  1
  Li  Li91  1  0.66666667  0.33333333  0.26864310  1
  Li  Li92  1  0.33333333  0.66666667  0.10197644  1
  Li  Li93  1  0.33333333  0.66666667  0.73135690  1
  Li  Li94  1  0.33333333  0.66666667  0.23135690  1
  Li  Li95  1  0.33333333  0.66666667  0.60197644  1
  Li  Li96  1  0.00000000  0.00000000  0.15619512  1
  Li  Li97  1  0.00000000  0.00000000  0.34380488  1
  Li  Li98  1  0.00000000  0.00000000  0.84380488  1
  Li  Li99  1  0.00000000  0.00000000  0.65619512  1
  Li  Li100  1  0.66666667  0.33333333  0.48952845  1
  Li  Li101  1  0.66666667  0.33333333  0.67713821  1
  Li  Li102  1  0.66666667  0.33333333  0.17713821  1
  Li  Li103  1  0.66666667  0.33333333  0.98952845  1
  Li  Li104  1  0.33333333  0.66666667  0.82286179  1
  Li  Li105  1  0.33333333  0.66666667  0.01047155  1
  Li  Li106  1  0.33333333  0.66666667  0.51047155  1
  Li  Li107  1  0.33333333  0.66666667  0.32286179  1
  Li  Li108  1  0.09952233  0.81636413  0.02569587  1
  Li  Li109  1  0.18363587  0.28315820  0.02569587  1
  Li  Li110  1  0.71684180  0.90047767  0.02569587  1
  Li  Li111  1  0.81636413  0.09952233  0.47430413  1
  Li  Li112  1  0.28315820  0.18363587  0.47430413  1
  Li  Li113  1  0.90047767  0.71684180  0.47430413  1
  Li  Li114  1  0.90047767  0.18363587  0.97430413  1
  Li  Li115  1  0.81636413  0.71684180  0.97430413  1
  Li  Li116  1  0.28315820  0.09952233  0.97430413  1
  Li  Li117  1  0.18363587  0.90047767  0.52569587  1
  Li  Li118  1  0.71684180  0.81636413  0.52569587  1
  Li  Li119  1  0.09952233  0.28315820  0.52569587  1
  Li  Li120  1  0.76618899  0.14969746  0.35902920  1
  Li  Li121  1  0.85030254  0.61649153  0.35902920  1
  Li  Li122  1  0.38350847  0.23381101  0.35902920  1
  Li  Li123  1  0.48303080  0.43285566  0.80763747  1
  Li  Li124  1  0.94982487  0.51696920  0.80763747  1
  Li  Li125  1  0.56714434  0.05017513  0.80763747  1
  Li  Li126  1  0.56714434  0.51696920  0.30763747  1
  Li  Li127  1  0.48303080  0.05017513  0.30763747  1
  Li  Li128  1  0.94982487  0.43285566  0.30763747  1
  Li  Li129  1  0.85030254  0.23381101  0.85902920  1
  Li  Li130  1  0.38350847  0.14969746  0.85902920  1
  Li  Li131  1  0.76618899  0.61649153  0.85902920  1
  Li  Li132  1  0.43285566  0.48303080  0.69236253  1
  Li  Li133  1  0.51696920  0.94982487  0.69236253  1
  Li  Li134  1  0.05017513  0.56714434  0.69236253  1
  Li  Li135  1  0.14969746  0.76618899  0.14097080  1
  Li  Li136  1  0.61649153  0.85030254  0.14097080  1
  Li  Li137  1  0.23381101  0.38350847  0.14097080  1
  Li  Li138  1  0.23381101  0.85030254  0.64097080  1
  Li  Li139  1  0.14969746  0.38350847  0.64097080  1
  Li  Li140  1  0.61649153  0.76618899  0.64097080  1
  Li  Li141  1  0.51696920  0.56714434  0.19236253  1
  Li  Li142  1  0.05017513  0.48303080  0.19236253  1
  Li  Li143  1  0.43285566  0.94982487  0.19236253  1
  Te  Te144  1  0.00000000  0.00000000  0.25000000  1
  Te  Te145  1  0.00000000  0.00000000  0.75000000  1
  Te  Te146  1  0.66666667  0.33333333  0.58333333  1
  Te  Te147  1  0.66666667  0.33333333  0.08333333  1
  Te  Te148  1  0.33333333  0.66666667  0.91666667  1
  Te  Te149  1  0.33333333  0.66666667  0.41666667  1
  Te  Te150  1  0.50000000  0.00000000  0.00000000  1
  Te  Te151  1  0.00000000  0.50000000  0.00000000  1
  Te  Te152  1  0.50000000  0.50000000  0.00000000  1
  Te  Te153  1  0.00000000  0.50000000  0.50000000  1
  Te  Te154  1  0.50000000  0.00000000  0.50000000  1
  Te  Te155  1  0.50000000  0.50000000  0.50000000  1
  Te  Te156  1  0.16666667  0.33333333  0.33333333  1
  Te  Te157  1  0.66666667  0.83333333  0.33333333  1
  Te  Te158  1  0.16666667  0.83333333  0.33333333  1
  Te  Te159  1  0.66666667  0.83333333  0.83333333  1
  Te  Te160  1  0.16666667  0.33333333  0.83333333  1
  Te  Te161  1  0.16666667  0.83333333  0.83333333  1
  Te  Te162  1  0.83333333  0.66666667  0.66666667  1
  Te  Te163  1  0.33333333  0.16666667  0.66666667  1
  Te  Te164  1  0.83333333  0.16666667  0.66666667  1
  Te  Te165  1  0.33333333  0.16666667  0.16666667  1
  Te  Te166  1  0.83333333  0.66666667  0.16666667  1
  Te  Te167  1  0.83333333  0.16666667  0.16666667  1
