# generated using pymatgen
data_LiF
_symmetry_space_group_name_H-M   'P 1'
_cell_length_a   13.43153532
_cell_length_b   13.43153532
_cell_length_c   9.30777137
_cell_angle_alpha   90.00000000
_cell_angle_beta   90.00000000
_cell_angle_gamma   90.00000000
_symmetry_Int_Tables_number   1
_chemical_formula_structural   LiF
_chemical_formula_sum   'Li64 F64'
_cell_volume   1679.17911573
_cell_formula_units_Z   64
loop_
 _symmetry_equiv_pos_site_id
 _symmetry_equiv_pos_as_xyz
  1  'x, y, z'
loop_
 _atom_site_type_symbol
 _atom_site_label
 _atom_site_symmetry_multiplicity
 _atom_site_fract_x
 _atom_site_fract_y
 _atom_site_fract_z
 _atom_site_occupancy
  F  F0  1  0.12372517  0.62025099  0.23332444  1
  F  F1  1  0.37627483  0.37974901  0.73332444  1
  F  F2  1  0.62974901  0.87372517  0.48332444  1
  F  F3  1  0.87025099  0.12627483  0.98332444  1
  F  F4  1  0.37627483  0.62025099  0.76667556  1
  F  F5  1  0.12372517  0.37974901  0.26667556  1
  F  F6  1  0.87025099  0.87372517  0.51667556  1
  F  F7  1  0.62974901  0.12627483  0.01667556  1
  F  F8  1  0.87627483  0.37974901  0.76667556  1
  F  F9  1  0.62372517  0.62025099  0.26667556  1
  F  F10  1  0.37025099  0.12627483  0.51667556  1
  F  F11  1  0.12974901  0.87372517  0.01667556  1
  F  F12  1  0.62372517  0.37974901  0.23332444  1
  F  F13  1  0.87627483  0.62025099  0.73332444  1
  F  F14  1  0.12974901  0.12627483  0.48332444  1
  F  F15  1  0.37025099  0.87372517  0.98332444  1
  F  F16  1  0.62372517  0.12025099  0.73332444  1
  F  F17  1  0.87627483  0.87974901  0.23332444  1
  F  F18  1  0.12974901  0.37372517  0.98332444  1
  F  F19  1  0.37025099  0.62627483  0.48332444  1
  F  F20  1  0.87627483  0.12025099  0.26667556  1
  F  F21  1  0.62372517  0.87974901  0.76667556  1
  F  F22  1  0.37025099  0.37372517  0.01667556  1
  F  F23  1  0.12974901  0.62627483  0.51667556  1
  F  F24  1  0.37627483  0.87974901  0.26667556  1
  F  F25  1  0.12372517  0.12025099  0.76667556  1
  F  F26  1  0.87025099  0.62627483  0.01667556  1
  F  F27  1  0.62974901  0.37372517  0.51667556  1
  F  F28  1  0.12372517  0.87974901  0.73332444  1
  F  F29  1  0.37627483  0.12025099  0.23332444  1
  F  F30  1  0.62974901  0.62627483  0.98332444  1
  F  F31  1  0.87025099  0.37372517  0.48332444  1
  F  F32  1  0.99942138  0.94995796  0.33738685  1
  F  F33  1  0.50057862  0.05004204  0.83738685  1
  F  F34  1  0.30004204  0.74942138  0.58738685  1
  F  F35  1  0.19995796  0.25057862  0.08738685  1
  F  F36  1  0.50057862  0.94995796  0.66261315  1
  F  F37  1  0.99942138  0.05004204  0.16261315  1
  F  F38  1  0.19995796  0.74942138  0.41261315  1
  F  F39  1  0.30004204  0.25057862  0.91261315  1
  F  F40  1  0.00057862  0.05004204  0.66261315  1
  F  F41  1  0.49942138  0.94995796  0.16261315  1
  F  F42  1  0.69995796  0.25057862  0.41261315  1
  F  F43  1  0.80004204  0.74942138  0.91261315  1
  F  F44  1  0.49942138  0.05004204  0.33738685  1
  F  F45  1  0.00057862  0.94995796  0.83738685  1
  F  F46  1  0.80004204  0.25057862  0.58738685  1
  F  F47  1  0.69995796  0.74942138  0.08738685  1
  F  F48  1  0.49942138  0.44995796  0.83738685  1
  F  F49  1  0.00057862  0.55004204  0.33738685  1
  F  F50  1  0.80004204  0.24942138  0.08738685  1
  F  F51  1  0.69995796  0.75057862  0.58738685  1
  F  F52  1  0.00057862  0.44995796  0.16261315  1
  F  F53  1  0.49942138  0.55004204  0.66261315  1
  F  F54  1  0.69995796  0.24942138  0.91261315  1
  F  F55  1  0.80004204  0.75057862  0.41261315  1
  F  F56  1  0.50057862  0.55004204  0.16261315  1
  F  F57  1  0.99942138  0.44995796  0.66261315  1
  F  F58  1  0.19995796  0.75057862  0.91261315  1
  F  F59  1  0.30004204  0.24942138  0.41261315  1
  F  F60  1  0.99942138  0.55004204  0.83738685  1
  F  F61  1  0.50057862  0.44995796  0.33738685  1
  F  F62  1  0.30004204  0.75057862  0.08738685  1
  F  F63  1  0.19995796  0.24942138  0.58738685  1
  Li  Li64  1  0.34129747  0.31317738  0.07571110  1
  Li  Li65  1  0.15870253  -0.31317738  0.57571110  1
  Li  Li66  1  -0.06317738  1.09129747  0.32571110  1
  Li  Li67  1  0.56317738  -0.09129747  0.82571110  1
  Li  Li68  1  0.15870253  0.31317738  -0.07571110  1
  Li  Li69  1  0.34129747  -0.31317738  0.42428890  1
  Li  Li70  1  0.56317738  1.09129747  0.67428890  1
  Li  Li71  1  -0.06317738  -0.09129747  0.17428890  1
  Li  Li72  1  -0.34129747  -0.31317738  -0.07571110  1
  Li  Li73  1  0.84129747  0.31317738  0.42428890  1
  Li  Li74  1  1.06317738  -0.09129747  0.67428890  1
  Li  Li75  1  0.43682262  1.09129747  0.17428890  1
  Li  Li76  1  0.84129747  -0.31317738  0.07571110  1
  Li  Li77  1  -0.34129747  0.31317738  0.57571110  1
  Li  Li78  1  0.43682262  -0.09129747  0.32571110  1
  Li  Li79  1  1.06317738  1.09129747  0.82571110  1
  Li  Li80  1  0.84129747  0.81317738  0.57571110  1
  Li  Li81  1  0.65870253  0.18682262  1.07571110  1
  Li  Li82  1  0.43682262  1.59129747  0.82571110  1
  Li  Li83  1  1.06317738  0.40870253  1.32571110  1
  Li  Li84  1  0.65870253  0.81317738  0.42428890  1
  Li  Li85  1  0.84129747  0.18682262  0.92428890  1
  Li  Li86  1  1.06317738  1.59129747  1.17428890  1
  Li  Li87  1  0.43682262  0.40870253  0.67428890  1
  Li  Li88  1  0.15870253  0.18682262  0.42428890  1
  Li  Li89  1  1.34129747  0.81317738  0.92428890  1
  Li  Li90  1  1.56317738  0.40870253  1.17428890  1
  Li  Li91  1  0.93682262  1.59129747  0.67428890  1
  Li  Li92  1  1.34129747  0.18682262  0.57571110  1
  Li  Li93  1  0.15870253  0.81317738  1.07571110  1
  Li  Li94  1  0.93682262  0.40870253  0.82571110  1
  Li  Li95  1  1.56317738  1.59129747  1.32571110  1
  Li  Li96  1  0.70250612  0.37597324  0.84211553  1
  Li  Li97  1  0.79749388  0.62402676  0.34211553  1
  Li  Li98  1  0.87402676  0.45250612  0.09211553  1
  Li  Li99  1  0.62597324  0.54749388  0.59211553  1
  Li  Li100  1  0.79749388  0.37597324  0.15788447  1
  Li  Li101  1  0.70250612  0.62402676  0.65788447  1
  Li  Li102  1  0.62597324  0.45250612  0.90788447  1
  Li  Li103  1  0.87402676  0.54749388  0.40788447  1
  Li  Li104  1  0.29749388  0.62402676  0.15788447  1
  Li  Li105  1  0.20250612  0.37597324  0.65788447  1
  Li  Li106  1  0.12597324  0.54749388  0.90788447  1
  Li  Li107  1  0.37402676  0.45250612  0.40788447  1
  Li  Li108  1  0.20250612  0.62402676  0.84211553  1
  Li  Li109  1  0.29749388  0.37597324  0.34211553  1
  Li  Li110  1  0.37402676  0.54749388  0.09211553  1
  Li  Li111  1  0.12597324  0.45250612  0.59211553  1
  Li  Li112  1  0.20250612  0.87597324  0.34211553  1
  Li  Li113  1  0.29749388  0.12402676  0.84211553  1
  Li  Li114  1  0.37402676  0.95250612  0.59211553  1
  Li  Li115  1  0.12597324  0.04749388  0.09211553  1
  Li  Li116  1  0.29749388  0.87597324  0.65788447  1
  Li  Li117  1  0.20250612  0.12402676  0.15788447  1
  Li  Li118  1  0.12597324  0.95250612  0.40788447  1
  Li  Li119  1  0.37402676  0.04749388  0.90788447  1
  Li  Li120  1  0.79749388  0.12402676  0.65788447  1
  Li  Li121  1  0.70250612  0.87597324  0.15788447  1
  Li  Li122  1  0.62597324  0.04749388  0.40788447  1
  Li  Li123  1  0.87402676  0.95250612  0.90788447  1
  Li  Li124  1  0.70250612  0.12402676  0.34211553  1
  Li  Li125  1  0.79749388  0.87597324  0.84211553  1
  Li  Li126  1  0.87402676  0.04749388  0.59211553  1
  Li  Li127  1  0.62597324  0.95250612  0.09211553  1
