# generated using pymatgen
data_Li2Y2P3Se2
_symmetry_space_group_name_H-M   'P 1'
_cell_length_a   4.27074982
_cell_length_b   4.46004032
_cell_length_c   6.79041614
_cell_angle_alpha   96.01532614
_cell_angle_beta   103.10012976
_cell_angle_gamma   114.16117434
_symmetry_Int_Tables_number   1
_chemical_formula_structural   Li2Y2P3Se2
_chemical_formula_sum   'Li2 Y2 P3 Se2'
_cell_volume   112.06357414
_cell_formula_units_Z   1
loop_
 _symmetry_equiv_pos_site_id
 _symmetry_equiv_pos_as_xyz
  1  'x, y, z'
loop_
 _atom_site_type_symbol
 _atom_site_label
 _atom_site_symmetry_multiplicity
 _atom_site_fract_x
 _atom_site_fract_y
 _atom_site_fract_z
 _atom_site_occupancy
  P  P0  1  0.00000000  0.00000000  0.00000000  1
  P  P1  1  0.33300000  0.66700000  0.25000000  1
  P  P2  1  0.66700000  0.33300000  0.50000000  1
  Se  Se3  1  0.00000000  0.00000000  0.75000000  1
  Se  Se4  1  0.04569949  0.68847680  0.46143303  1
  Li  Li5  1  0.11998841  0.40410084  0.45522732  1
  Li  Li6  1  0.45606429  0.13139966  0.52053379  1
  Y  Y7  1  0.47534078  0.74306051  0.10127601  1
  Y  Y8  1  0.96191059  0.50949760  0.77335790  1
