# generated using pymatgen
data_Li4TeF2
_symmetry_space_group_name_H-M   'P 1'
_cell_length_a   17.47826612
_cell_length_b   17.47826612
_cell_length_c   9.85169313
_cell_angle_alpha   90.00000000
_cell_angle_beta   90.00000000
_cell_angle_gamma   90.00000000
_symmetry_Int_Tables_number   1
_chemical_formula_structural   Li4TeF2
_chemical_formula_sum   'Li96 Te24 F48'
_cell_volume   3009.59163346
_cell_formula_units_Z   24
loop_
 _symmetry_equiv_pos_site_id
 _symmetry_equiv_pos_as_xyz
  1  'x, y, z'
loop_
 _atom_site_type_symbol
 _atom_site_label
 _atom_site_symmetry_multiplicity
 _atom_site_fract_x
 _atom_site_fract_y
 _atom_site_fract_z
 _atom_site_occupancy
  F  F0  1  0.00000000  0.00000000  0.50000000  1
  F  F1  1  0.68939764  0.62738256  0.35871389  1
  F  F2  1  -0.68939764  -0.62738256  0.35871389  1
  F  F3  1  -0.62738256  0.68939764  0.35871389  1
  F  F4  1  0.62738256  -0.68939764  0.35871389  1
  F  F5  1  -0.68939764  0.62738256  -0.35871389  1
  F  F6  1  0.68939764  -0.62738256  -0.35871389  1
  F  F7  1  0.62738256  0.68939764  -0.35871389  1
  F  F8  1  -0.62738256  -0.68939764  -0.35871389  1
  F  F9  1  -0.68939764  -0.62738256  -0.35871389  1
  F  F10  1  0.68939764  0.62738256  -0.35871389  1
  F  F11  1  0.62738256  -0.68939764  -0.35871389  1
  F  F12  1  -0.62738256  0.68939764  -0.35871389  1
  F  F13  1  0.68939764  -0.62738256  0.35871389  1
  F  F14  1  -0.68939764  0.62738256  0.35871389  1
  F  F15  1  -0.62738256  -0.68939764  0.35871389  1
  F  F16  1  0.62738256  0.68939764  0.35871389  1
  F  F17  1  0.39363704  0.01789519  0.00000000  1
  F  F18  1  0.60636296  0.98210481  0.00000000  1
  F  F19  1  0.98210481  0.39363704  0.00000000  1
  F  F20  1  0.01789519  0.60636296  -0.00000000  1
  F  F21  1  0.60636296  0.01789519  -0.00000000  1
  F  F22  1  0.39363704  0.98210481  0.00000000  1
  F  F23  1  0.01789519  0.39363704  -0.00000000  1
  F  F24  1  0.98210481  0.60636296  0.00000000  1
  F  F25  1  0.00000000  0.50000000  0.50000000  1
  F  F26  1  0.50000000  -0.00000000  0.50000000  1
  F  F27  1  0.00000000  0.50000000  0.00000000  1
  F  F28  1  0.50000000  -0.00000000  0.00000000  1
  F  F29  1  0.91198281  0.91198281  0.96184810  1
  F  F30  1  0.08801719  0.08801719  0.96184810  1
  F  F31  1  0.08801719  0.91198281  0.96184810  1
  F  F32  1  0.91198281  0.08801719  0.96184810  1
  F  F33  1  0.08801719  0.91198281  0.03815190  1
  F  F34  1  0.91198281  0.08801719  0.03815190  1
  F  F35  1  0.91198281  0.91198281  0.03815190  1
  F  F36  1  0.08801719  0.08801719  0.03815190  1
  F  F37  1  0.57589141  0.37247645  0.00000000  1
  F  F38  1  0.42410859  0.62752355  -0.00000000  1
  F  F39  1  0.62752355  0.57589141  -0.00000000  1
  F  F40  1  0.37247645  0.42410859  0.00000000  1
  F  F41  1  0.42410859  0.37247645  0.00000000  1
  F  F42  1  0.57589141  0.62752355  -0.00000000  1
  F  F43  1  0.37247645  0.57589141  0.00000000  1
  F  F44  1  0.62752355  0.42410859  -0.00000000  1
  F  F45  1  0.50000000  0.50000000  0.23625052  1
  F  F46  1  0.50000000  0.50000000  0.76374948  1
  F  F47  1  0.50000000  0.50000000  0.00000000  1
  Li  Li48  1  0.12638420  0.93208127  0.38122036  1
  Li  Li49  1  0.87361580  0.06791873  0.38122036  1
  Li  Li50  1  0.06791873  0.12638420  0.38122036  1
  Li  Li51  1  0.93208127  0.87361580  0.38122036  1
  Li  Li52  1  0.87361580  0.93208127  0.61877964  1
  Li  Li53  1  0.12638420  0.06791873  0.61877964  1
  Li  Li54  1  0.93208127  0.12638420  0.61877964  1
  Li  Li55  1  0.06791873  0.87361580  0.61877964  1
  Li  Li56  1  0.87361580  0.06791873  0.61877964  1
  Li  Li57  1  0.12638420  0.93208127  0.61877964  1
  Li  Li58  1  0.93208127  0.87361580  0.61877964  1
  Li  Li59  1  0.06791873  0.12638420  0.61877964  1
  Li  Li60  1  0.12638420  0.06791873  0.38122036  1
  Li  Li61  1  0.87361580  0.93208127  0.38122036  1
  Li  Li62  1  0.06791873  0.87361580  0.38122036  1
  Li  Li63  1  0.93208127  0.12638420  0.38122036  1
  Li  Li64  1  0.93783988  0.50000000  0.84626741  1
  Li  Li65  1  0.06216012  0.50000000  0.84626741  1
  Li  Li66  1  0.50000000  0.93783988  0.84626741  1
  Li  Li67  1  0.50000000  0.06216012  0.84626741  1
  Li  Li68  1  0.06216012  0.50000000  0.15373259  1
  Li  Li69  1  0.93783988  0.50000000  0.15373259  1
  Li  Li70  1  0.50000000  0.93783988  0.15373259  1
  Li  Li71  1  0.50000000  0.06216012  0.15373259  1
  Li  Li72  1  0.13608958  0.56441425  0.08065620  1
  Li  Li73  1  0.86391042  0.43558575  0.08065620  1
  Li  Li74  1  0.43558575  0.13608958  0.08065620  1
  Li  Li75  1  0.56441425  0.86391042  0.08065620  1
  Li  Li76  1  0.86391042  0.56441425  0.91934380  1
  Li  Li77  1  0.13608958  0.43558575  0.91934380  1
  Li  Li78  1  0.56441425  0.13608958  0.91934380  1
  Li  Li79  1  0.43558575  0.86391042  0.91934380  1
  Li  Li80  1  0.86391042  0.43558575  0.91934380  1
  Li  Li81  1  0.13608958  0.56441425  0.91934380  1
  Li  Li82  1  0.56441425  0.86391042  0.91934380  1
  Li  Li83  1  0.43558575  0.13608958  0.91934380  1
  Li  Li84  1  0.13608958  0.43558575  0.08065620  1
  Li  Li85  1  0.86391042  0.56441425  0.08065620  1
  Li  Li86  1  0.43558575  0.86391042  0.08065620  1
  Li  Li87  1  0.56441425  0.13608958  0.08065620  1
  Li  Li88  1  0.21592673  0.07427483  0.17944105  1
  Li  Li89  1  0.78407327  0.92572517  0.17944105  1
  Li  Li90  1  0.92572517  0.21592673  0.17944105  1
  Li  Li91  1  0.07427483  0.78407327  0.17944105  1
  Li  Li92  1  0.78407327  0.07427483  0.82055895  1
  Li  Li93  1  0.21592673  0.92572517  0.82055895  1
  Li  Li94  1  0.07427483  0.21592673  0.82055895  1
  Li  Li95  1  0.92572517  0.78407327  0.82055895  1
  Li  Li96  1  0.78407327  0.92572517  0.82055895  1
  Li  Li97  1  0.21592673  0.07427483  0.82055895  1
  Li  Li98  1  0.07427483  0.78407327  0.82055895  1
  Li  Li99  1  0.92572517  0.21592673  0.82055895  1
  Li  Li100  1  0.21592673  0.92572517  0.17944105  1
  Li  Li101  1  0.78407327  0.07427483  0.17944105  1
  Li  Li102  1  0.92572517  0.78407327  0.17944105  1
  Li  Li103  1  0.07427483  0.21592673  0.17944105  1
  Li  Li104  1  0.22412357  -0.00000000  0.92968479  1
  Li  Li105  1  0.77587643  0.00000000  0.92968479  1
  Li  Li106  1  0.00000000  0.22412357  0.92968479  1
  Li  Li107  1  0.00000000  0.77587643  0.92968479  1
  Li  Li108  1  0.77587643  0.00000000  0.07031521  1
  Li  Li109  1  0.22412357  -0.00000000  0.07031521  1
  Li  Li110  1  0.00000000  0.22412357  0.07031521  1
  Li  Li111  1  0.00000000  0.77587643  0.07031521  1
  Li  Li112  1  0.16199782  -0.00000000  0.27233324  1
  Li  Li113  1  0.83800218  -0.00000000  0.27233324  1
  Li  Li114  1  0.00000000  0.16199782  0.27233324  1
  Li  Li115  1  0.00000000  0.83800218  0.27233324  1
  Li  Li116  1  0.83800218  -0.00000000  0.72766676  1
  Li  Li117  1  0.16199782  -0.00000000  0.72766676  1
  Li  Li118  1  0.00000000  0.16199782  0.72766676  1
  Li  Li119  1  0.00000000  0.83800218  0.72766676  1
  Li  Li120  1  0.67351124  0.50000000  0.50000000  1
  Li  Li121  1  0.32648876  0.50000000  0.50000000  1
  Li  Li122  1  0.50000000  0.67351124  0.50000000  1
  Li  Li123  1  0.50000000  0.32648876  0.50000000  1
  Li  Li124  1  0.22478475  0.31743733  0.77164707  1
  Li  Li125  1  0.77521525  0.68256267  0.77164707  1
  Li  Li126  1  0.68256267  0.22478475  0.77164707  1
  Li  Li127  1  0.31743733  0.77521525  0.77164707  1
  Li  Li128  1  0.77521525  0.31743733  0.22835293  1
  Li  Li129  1  0.22478475  0.68256267  0.22835293  1
  Li  Li130  1  0.31743733  0.22478475  0.22835293  1
  Li  Li131  1  0.68256267  0.77521525  0.22835293  1
  Li  Li132  1  0.77521525  0.68256267  0.22835293  1
  Li  Li133  1  0.22478475  0.31743733  0.22835293  1
  Li  Li134  1  0.31743733  0.77521525  0.22835293  1
  Li  Li135  1  0.68256267  0.22478475  0.22835293  1
  Li  Li136  1  0.22478475  0.68256267  0.77164707  1
  Li  Li137  1  0.77521525  0.31743733  0.77164707  1
  Li  Li138  1  0.68256267  0.77521525  0.77164707  1
  Li  Li139  1  0.31743733  0.22478475  0.77164707  1
  Li  Li140  1  0.17258548  0.17258548  0.50000000  1
  Li  Li141  1  0.82741452  0.82741452  0.50000000  1
  Li  Li142  1  0.82741452  0.17258548  0.50000000  1
  Li  Li143  1  0.17258548  0.82741452  0.50000000  1
  Te  Te144  1  0.31264928  0.31264928  0.50000000  1
  Te  Te145  1  0.68735072  0.68735072  0.50000000  1
  Te  Te146  1  0.68735072  0.31264928  0.50000000  1
  Te  Te147  1  0.31264928  0.68735072  0.50000000  1
  Te  Te148  1  0.10216986  0.43230456  0.29250448  1
  Te  Te149  1  0.89783014  0.56769544  0.29250448  1
  Te  Te150  1  0.56769544  0.10216986  0.29250448  1
  Te  Te151  1  0.43230456  0.89783014  0.29250448  1
  Te  Te152  1  0.89783014  0.43230456  0.70749552  1
  Te  Te153  1  0.10216986  0.56769544  0.70749552  1
  Te  Te154  1  0.43230456  0.10216986  0.70749552  1
  Te  Te155  1  0.56769544  0.89783014  0.70749552  1
  Te  Te156  1  0.89783014  0.56769544  0.70749552  1
  Te  Te157  1  0.10216986  0.43230456  0.70749552  1
  Te  Te158  1  0.43230456  0.89783014  0.70749552  1
  Te  Te159  1  0.56769544  0.10216986  0.70749552  1
  Te  Te160  1  0.10216986  0.56769544  0.29250448  1
  Te  Te161  1  0.89783014  0.43230456  0.29250448  1
  Te  Te162  1  0.56769544  0.89783014  0.29250448  1
  Te  Te163  1  0.43230456  0.10216986  0.29250448  1
  Te  Te164  1  0.43350805  0.00000000  0.50000000  1
  Te  Te165  1  0.56649195  -0.00000000  0.50000000  1
  Te  Te166  1  0.00000000  0.43350805  0.50000000  1
  Te  Te167  1  0.00000000  0.56649195  0.50000000  1
