# generated using pymatgen
data_LiF
_symmetry_space_group_name_H-M   'P 1'
_cell_length_a   12.67478627
_cell_length_b   12.67478627
_cell_length_c   4.15649237
_cell_angle_alpha   90.00000000
_cell_angle_beta   90.00000000
_cell_angle_gamma   120.00000000
_symmetry_Int_Tables_number   1
_chemical_formula_structural   LiF
_chemical_formula_sum   'Li33 F33'
_cell_volume   578.28098025
_cell_formula_units_Z   33
loop_
 _symmetry_equiv_pos_site_id
 _symmetry_equiv_pos_as_xyz
  1  'x, y, z'
loop_
 _atom_site_type_symbol
 _atom_site_label
 _atom_site_symmetry_multiplicity
 _atom_site_fract_x
 _atom_site_fract_y
 _atom_site_fract_z
 _atom_site_occupancy
  F  F0  1  0.20867427  0.50982004  0.85740168  1
  F  F1  1  0.49017996  0.69885422  0.85740168  1
  F  F2  1  0.30114578  0.79132573  0.85740168  1
  F  F3  1  0.49017996  0.79132573  0.14259832  1
  F  F4  1  0.30114578  0.50982004  0.14259832  1
  F  F5  1  0.20867427  0.69885422  0.14259832  1
  F  F6  1  0.49697169  0.89823221  0.81681373  1
  F  F7  1  0.10176779  0.59873948  0.81681373  1
  F  F8  1  0.40126052  0.50302831  0.81681373  1
  F  F9  1  0.10176779  0.50302831  0.18318627  1
  F  F10  1  0.40126052  0.89823221  0.18318627  1
  F  F11  1  0.49697169  0.59873948  0.18318627  1
  F  F12  1  0.60702487  0.31497719  0.41822200  1
  F  F13  1  0.68502281  0.29204767  0.41822200  1
  F  F14  1  0.70795233  0.39297513  0.41822200  1
  F  F15  1  0.68502281  0.39297513  0.58177800  1
  F  F16  1  0.70795233  0.31497719  0.58177800  1
  F  F17  1  0.60702487  0.29204767  0.58177800  1
  F  F18  1  0.66666667  0.33333333  0.64593868  1
  F  F19  1  0.66666667  0.33333333  0.35406132  1
  F  F20  1  0.14905238  0.85094762  0.50000000  1
  F  F21  1  0.14905238  0.29810477  0.50000000  1
  F  F22  1  0.70189523  0.85094762  0.50000000  1
  F  F23  1  0.66345092  0.63577173  0.50104642  1
  F  F24  1  0.36422827  0.02767919  0.50104642  1
  F  F25  1  0.97232081  0.33654908  0.50104642  1
  F  F26  1  0.36422827  0.33654908  0.49895358  1
  F  F27  1  0.97232081  0.63577173  0.49895358  1
  F  F28  1  0.66345092  0.02767919  0.49895358  1
  F  F29  1  0.33333333  0.66666667  0.50000000  1
  F  F30  1  0.21972431  0.78027569  0.00000000  1
  F  F31  1  0.21972431  0.43944862  0.00000000  1
  F  F32  1  0.56055138  0.78027569  0.00000000  1
  Li  Li33  1  0.29596478  0.95071054  0.40935424  1
  Li  Li34  1  -0.95071054  -0.65474576  0.40935424  1
  Li  Li35  1  0.65474576  -0.29596478  0.40935424  1
  Li  Li36  1  -0.95071054  -0.29596478  -0.40935424  1
  Li  Li37  1  0.65474576  0.95071054  -0.40935424  1
  Li  Li38  1  0.29596478  -0.65474576  -0.40935424  1
  Li  Li39  1  0.09739164  0.90260836  0.00000000  1
  Li  Li40  1  0.09739164  0.19478328  -0.00000000  1
  Li  Li41  1  0.80521672  0.90260836  -0.00000000  1
  Li  Li42  1  0.72585381  0.73400745  0.08977245  1
  Li  Li43  1  0.26599255  0.99184637  0.08977245  1
  Li  Li44  1  0.00815363  0.27414619  0.08977245  1
  Li  Li45  1  0.26599255  0.27414619  0.91022755  1
  Li  Li46  1  0.00815363  0.73400745  0.91022755  1
  Li  Li47  1  0.72585381  0.99184637  0.91022755  1
  Li  Li48  1  0.00000000  0.00000000  0.50000000  1
  Li  Li49  1  0.68186937  0.09461116  0.80002638  1
  Li  Li50  1  0.90538884  0.58725821  0.80002638  1
  Li  Li51  1  0.41274179  0.31813063  0.80002638  1
  Li  Li52  1  0.90538884  0.31813063  0.19997362  1
  Li  Li53  1  0.41274179  0.09461116  0.19997362  1
  Li  Li54  1  0.68186937  0.58725821  0.19997362  1
  Li  Li55  1  0.70278233  0.17719214  0.53609551  1
  Li  Li56  1  0.82280786  0.52559019  0.53609551  1
  Li  Li57  1  0.47440981  0.29721767  0.53609551  1
  Li  Li58  1  0.82280786  0.29721767  0.46390449  1
  Li  Li59  1  0.47440981  0.17719214  0.46390449  1
  Li  Li60  1  0.70278233  0.52559019  0.46390449  1
  Li  Li61  1  0.94648722  0.05351278  0.00000000  1
  Li  Li62  1  0.94648722  0.89297445  0.00000000  1
  Li  Li63  1  0.10702555  0.05351278  0.00000000  1
  Li  Li64  1  0.00000000  0.00000000  0.16154557  1
  Li  Li65  1  0.00000000  0.00000000  0.83845443  1
