# generated using pymatgen
data_LiF
_symmetry_space_group_name_H-M   'P 1'
_cell_length_a   11.14886972
_cell_length_b   11.14886972
_cell_length_c   9.57924046
_cell_angle_alpha   90.00000000
_cell_angle_beta   90.00000000
_cell_angle_gamma   120.00000000
_symmetry_Int_Tables_number   1
_chemical_formula_structural   LiF
_chemical_formula_sum   'Li36 F36'
_cell_volume   1031.15366084
_cell_formula_units_Z   36
loop_
 _symmetry_equiv_pos_site_id
 _symmetry_equiv_pos_as_xyz
  1  'x, y, z'
loop_
 _atom_site_type_symbol
 _atom_site_label
 _atom_site_symmetry_multiplicity
 _atom_site_fract_x
 _atom_site_fract_y
 _atom_site_fract_z
 _atom_site_occupancy
  F  F0  1  0.16265836  0.74328754  0.40815838  1
  F  F1  1  -0.74328754  -0.58062919  0.40815838  1
  F  F2  1  0.58062919  -0.16265836  0.40815838  1
  F  F3  1  0.74328754  0.16265836  0.09184162  1
  F  F4  1  -0.58062919  -0.74328754  0.09184162  1
  F  F5  1  -0.16265836  0.58062919  0.09184162  1
  F  F6  1  -0.16265836  -0.74328754  -0.40815838  1
  F  F7  1  0.74328754  0.58062919  -0.40815838  1
  F  F8  1  -0.58062919  0.16265836  -0.40815838  1
  F  F9  1  -0.74328754  -0.16265836  0.90815838  1
  F  F10  1  0.58062919  0.74328754  0.90815838  1
  F  F11  1  0.16265836  -0.58062919  0.90815838  1
  F  F12  1  0.82932502  1.07662088  0.74149172  1
  F  F13  1  -0.07662088  -0.24729585  0.74149172  1
  F  F14  1  1.24729585  0.17067498  0.74149172  1
  F  F15  1  1.40995421  0.49599169  0.42517495  1
  F  F16  1  0.08603748  -0.40995421  0.42517495  1
  F  F17  1  0.50400831  0.91396252  0.42517495  1
  F  F18  1  0.50400831  -0.40995421  -0.07482505  1
  F  F19  1  1.40995421  0.91396252  -0.07482505  1
  F  F20  1  0.08603748  0.49599169  -0.07482505  1
  F  F21  1  -0.07662088  0.17067498  1.24149172  1
  F  F22  1  1.24729585  1.07662088  1.24149172  1
  F  F23  1  0.82932502  -0.24729585  1.24149172  1
  F  F24  1  0.49599169  1.40995421  1.07482505  1
  F  F25  1  -0.40995421  0.08603748  1.07482505  1
  F  F26  1  0.91396252  0.50400831  1.07482505  1
  F  F27  1  1.07662088  0.82932502  0.75850828  1
  F  F28  1  -0.24729585  -0.07662088  0.75850828  1
  F  F29  1  0.17067498  1.24729585  0.75850828  1
  F  F30  1  0.17067498  -0.07662088  0.25850828  1
  F  F31  1  1.07662088  1.24729585  0.25850828  1
  F  F32  1  -0.24729585  0.82932502  0.25850828  1
  F  F33  1  -0.40995421  0.50400831  1.57482505  1
  F  F34  1  0.91396252  1.40995421  1.57482505  1
  F  F35  1  0.49599169  0.08603748  1.57482505  1
  Li  Li36  1  0.34435374  0.93313671  0.15485933  1
  Li  Li37  1  0.06686329  0.41121704  0.15485933  1
  Li  Li38  1  0.58878296  0.65564626  0.15485933  1
  Li  Li39  1  0.93313671  0.34435374  0.34514067  1
  Li  Li40  1  0.41121704  0.06686329  0.34514067  1
  Li  Li41  1  0.65564626  0.58878296  0.34514067  1
  Li  Li42  1  0.65564626  0.06686329  0.84514067  1
  Li  Li43  1  0.93313671  0.58878296  0.84514067  1
  Li  Li44  1  0.41121704  0.34435374  0.84514067  1
  Li  Li45  1  0.06686329  0.65564626  0.65485933  1
  Li  Li46  1  0.58878296  0.93313671  0.65485933  1
  Li  Li47  1  0.34435374  0.41121704  0.65485933  1
  Li  Li48  1  0.01102041  0.26647004  0.48819266  1
  Li  Li49  1  0.73352996  0.74455037  0.48819266  1
  Li  Li50  1  0.25544963  0.98897959  0.48819266  1
  Li  Li51  1  0.59980337  0.67768708  0.67847401  1
  Li  Li52  1  0.07788370  0.40019663  0.67847401  1
  Li  Li53  1  0.32231292  0.92211630  0.67847401  1
  Li  Li54  1  0.32231292  0.40019663  0.17847401  1
  Li  Li55  1  0.59980337  0.92211630  0.17847401  1
  Li  Li56  1  0.07788370  0.67768708  0.17847401  1
  Li  Li57  1  0.73352996  0.98897959  0.98819266  1
  Li  Li58  1  0.25544963  0.26647004  0.98819266  1
  Li  Li59  1  0.01102041  0.74455037  0.98819266  1
  Li  Li60  1  0.67768708  0.59980337  0.82152599  1
  Li  Li61  1  0.40019663  0.07788370  0.82152599  1
  Li  Li62  1  0.92211630  0.32231292  0.82152599  1
  Li  Li63  1  0.26647004  0.01102041  0.01180734  1
  Li  Li64  1  0.74455037  0.73352996  0.01180734  1
  Li  Li65  1  0.98897959  0.25544963  0.01180734  1
  Li  Li66  1  0.98897959  0.73352996  0.51180734  1
  Li  Li67  1  0.26647004  0.25544963  0.51180734  1
  Li  Li68  1  0.74455037  0.01102041  0.51180734  1
  Li  Li69  1  0.40019663  0.32231292  0.32152599  1
  Li  Li70  1  0.92211630  0.59980337  0.32152599  1
  Li  Li71  1  0.67768708  0.07788370  0.32152599  1
