# generated using pymatgen
data_LiF
_symmetry_space_group_name_H-M   'P 1'
_cell_length_a   15.69374817
_cell_length_b   6.16484567
_cell_length_c   10.96689959
_cell_angle_alpha   90.00000000
_cell_angle_beta   90.00000000
_cell_angle_gamma   90.00000000
_symmetry_Int_Tables_number   1
_chemical_formula_structural   LiF
_chemical_formula_sum   'Li30 F30'
_cell_volume   1061.04244153
_cell_formula_units_Z   30
loop_
 _symmetry_equiv_pos_site_id
 _symmetry_equiv_pos_as_xyz
  1  'x, y, z'
loop_
 _atom_site_type_symbol
 _atom_site_label
 _atom_site_symmetry_multiplicity
 _atom_site_fract_x
 _atom_site_fract_y
 _atom_site_fract_z
 _atom_site_occupancy
  F  F0  1  0.27305782  0.79018431  0.65900429  1
  F  F1  1  0.72694218  0.20981569  0.65900429  1
  F  F2  1  0.22694218  0.29018431  0.34099571  1
  F  F3  1  0.77305782  0.70981569  0.34099571  1
  F  F4  1  0.72694218  0.20981569  0.34099571  1
  F  F5  1  0.27305782  0.79018431  0.34099571  1
  F  F6  1  0.77305782  0.70981569  0.65900429  1
  F  F7  1  0.22694218  0.29018431  0.65900429  1
  F  F8  1  0.38567628  0.16947972  0.50000000  1
  F  F9  1  0.61432372  0.83052028  0.50000000  1
  F  F10  1  0.11432372  0.66947972  0.50000000  1
  F  F11  1  0.88567628  0.33052028  0.50000000  1
  F  F12  1  0.00000000  0.00000000  0.00000000  1
  F  F13  1  0.50000000  0.50000000  -0.00000000  1
  F  F14  1  0.00000000  0.50000000  0.78205228  1
  F  F15  1  0.50000000  0.00000000  0.21794772  1
  F  F16  1  0.00000000  0.50000000  0.21794772  1
  F  F17  1  0.50000000  0.00000000  0.78205228  1
  F  F18  1  0.00000000  0.50000000  0.87948533  1
  F  F19  1  0.50000000  0.00000000  0.12051467  1
  F  F20  1  0.00000000  0.50000000  0.12051467  1
  F  F21  1  0.50000000  0.00000000  0.87948533  1
  F  F22  1  0.60508637  0.20977687  -0.00000000  1
  F  F23  1  0.39491363  0.79022313  -0.00000000  1
  F  F24  1  0.89491363  0.70977687  0.00000000  1
  F  F25  1  0.10508637  0.29022313  0.00000000  1
  F  F26  1  0.00000000  0.50000000  0.31306338  1
  F  F27  1  0.50000000  0.00000000  0.68693662  1
  F  F28  1  0.00000000  0.50000000  0.68693662  1
  F  F29  1  0.50000000  0.00000000  0.31306338  1
  Li  Li30  1  0.00000000  0.50000000  0.50000000  1
  Li  Li31  1  0.50000000  0.00000000  0.50000000  1
  Li  Li32  1  0.97714657  0.70759587  0.08233035  1
  Li  Li33  1  -0.97714657  -0.70759587  0.08233035  1
  Li  Li34  1  -0.47714657  1.20759587  -0.08233035  1
  Li  Li35  1  1.47714657  -0.20759587  -0.08233035  1
  Li  Li36  1  -0.97714657  -0.70759587  -0.08233035  1
  Li  Li37  1  0.97714657  0.70759587  -0.08233035  1
  Li  Li38  1  1.47714657  -0.20759587  0.08233035  1
  Li  Li39  1  -0.47714657  1.20759587  0.08233035  1
  Li  Li40  1  0.60458241  0.55919022  0.10328267  1
  Li  Li41  1  0.39541759  0.44080978  0.10328267  1
  Li  Li42  1  0.89541759  0.05919022  0.89671733  1
  Li  Li43  1  0.10458241  0.94080978  0.89671733  1
  Li  Li44  1  0.39541759  0.44080978  0.89671733  1
  Li  Li45  1  0.60458241  0.55919022  0.89671733  1
  Li  Li46  1  0.10458241  0.94080978  0.10328267  1
  Li  Li47  1  0.89541759  0.05919022  0.10328267  1
  Li  Li48  1  0.93121523  0.49553515  0.61227272  1
  Li  Li49  1  0.06878477  0.50446485  0.61227272  1
  Li  Li50  1  0.56878477  0.99553515  0.38772728  1
  Li  Li51  1  0.43121523  0.00446485  0.38772728  1
  Li  Li52  1  0.06878477  0.50446485  0.38772728  1
  Li  Li53  1  0.93121523  0.49553515  0.38772728  1
  Li  Li54  1  0.43121523  0.00446485  0.61227272  1
  Li  Li55  1  0.56878477  0.99553515  0.61227272  1
  Li  Li56  1  0.00000000  0.50000000  -0.00000000  1
  Li  Li57  1  0.50000000  0.00000000  0.00000000  1
  Li  Li58  1  0.00000000  0.00000000  0.50000000  1
  Li  Li59  1  0.50000000  0.50000000  0.50000000  1
