# generated using pymatgen
data_LiF
_symmetry_space_group_name_H-M   'P 1'
_cell_length_a   6.14841453
_cell_length_b   6.14841453
_cell_length_c   8.19872785
_cell_angle_alpha   90.00000000
_cell_angle_beta   90.00000000
_cell_angle_gamma   90.00000000
_symmetry_Int_Tables_number   1
_chemical_formula_structural   LiF
_chemical_formula_sum   'Li12 F12'
_cell_volume   309.93651914
_cell_formula_units_Z   12
loop_
 _symmetry_equiv_pos_site_id
 _symmetry_equiv_pos_as_xyz
  1  'x, y, z'
loop_
 _atom_site_type_symbol
 _atom_site_label
 _atom_site_symmetry_multiplicity
 _atom_site_fract_x
 _atom_site_fract_y
 _atom_site_fract_z
 _atom_site_occupancy
  F  F0  1  0.58262128  0.58262128  0.69483192  1
  F  F1  1  -0.58262128  -0.58262128  0.69483192  1
  F  F2  1  -0.58262128  0.58262128  0.69483192  1
  F  F3  1  0.58262128  -0.58262128  0.69483192  1
  F  F4  1  -0.58262128  0.58262128  -0.69483192  1
  F  F5  1  0.58262128  -0.58262128  -0.69483192  1
  F  F6  1  0.58262128  0.58262128  -0.69483192  1
  F  F7  1  -0.58262128  -0.58262128  -0.69483192  1
  F  F8  1  0.40681914  0.50000000  0.00000000  1
  F  F9  1  0.59318086  0.50000000  0.00000000  1
  F  F10  1  0.50000000  0.40681914  0.00000000  1
  F  F11  1  0.50000000  0.59318086  0.00000000  1
  Li  Li12  1  0.00000000  0.50000000  0.50000000  1
  Li  Li13  1  0.50000000  0.00000000  0.50000000  1
  Li  Li14  1  0.00000000  0.00000000  0.77987079  1
  Li  Li15  1  0.00000000  0.00000000  0.22012921  1
  Li  Li16  1  0.15066937  0.29935782  0.50000000  1
  Li  Li17  1  0.84933063  0.70064218  0.50000000  1
  Li  Li18  1  0.70064218  0.15066937  0.50000000  1
  Li  Li19  1  0.29935782  0.84933063  0.50000000  1
  Li  Li20  1  0.84933063  0.29935782  0.50000000  1
  Li  Li21  1  0.15066937  0.70064218  0.50000000  1
  Li  Li22  1  0.29935782  0.15066937  0.50000000  1
  Li  Li23  1  0.70064218  0.84933063  0.50000000  1
