# generated using pymatgen
data_Li2Y2P3Se
_symmetry_space_group_name_H-M   'P 1'
_cell_length_a   4.86029488
_cell_length_b   5.12135122
_cell_length_c   6.95837237
_cell_angle_alpha   94.56999231
_cell_angle_beta   100.16943481
_cell_angle_gamma   108.61778743
_symmetry_Int_Tables_number   1
_chemical_formula_structural   Li2Y2P3Se
_chemical_formula_sum   'Li2 Y2 P3 Se1'
_cell_volume   159.83276695
_cell_formula_units_Z   1
loop_
 _symmetry_equiv_pos_site_id
 _symmetry_equiv_pos_as_xyz
  1  'x, y, z'
loop_
 _atom_site_type_symbol
 _atom_site_label
 _atom_site_symmetry_multiplicity
 _atom_site_fract_x
 _atom_site_fract_y
 _atom_site_fract_z
 _atom_site_occupancy
  P  P0  1  0.12500000  0.12500000  0.12500000  1
  P  P1  1  0.50000000  0.50000000  0.50000000  1
  P  P2  1  0.25000000  0.25000000  0.25000000  1
  Se  Se3  1  0.75000000  0.75000000  0.75000000  1
  Li  Li4  1  0.90112490  0.87402079  0.41209029  1
  Li  Li5  1  0.54819170  0.87275284  0.83015857  1
  Y  Y6  1  0.51917777  0.44060571  0.81701979  1
  Y  Y7  1  0.26149422  0.37754976  0.49286751  1
