# generated using pymatgen
data_Li3Y2As4P2Se
_symmetry_space_group_name_H-M   'P 1'
_cell_length_a   5.75431457
_cell_length_b   5.78165763
_cell_length_c   7.07248247
_cell_angle_alpha   93.08926987
_cell_angle_beta   96.86920401
_cell_angle_gamma   102.57912157
_symmetry_Int_Tables_number   1
_chemical_formula_structural   Li3Y2As4P2Se
_chemical_formula_sum   'Li3 Y2 As4 P2 Se1'
_cell_volume   227.22406207
_cell_formula_units_Z   1
loop_
 _symmetry_equiv_pos_site_id
 _symmetry_equiv_pos_as_xyz
  1  'x, y, z'
loop_
 _atom_site_type_symbol
 _atom_site_label
 _atom_site_symmetry_multiplicity
 _atom_site_fract_x
 _atom_site_fract_y
 _atom_site_fract_z
 _atom_site_occupancy
  Se  Se0  1  0.12500000  0.00000000  0.25000000  1
  P  P1  1  0.00000000  0.00000000  0.00000000  1
  P  P2  1  0.37500000  0.00000000  0.25000000  1
  As  As3  1  0.25000000  0.25000000  0.25000000  1
  As  As4  1  0.00000000  0.25000000  0.12500000  1
  As  As5  1  0.01390099  0.29513955  0.67438872  1
  As  As6  1  0.95091430  0.48459071  0.01852855  1
  Li  Li7  1  0.19114854  0.14233050  0.16899556  1
  Li  Li8  1  0.87393668  0.52180079  0.60296869  1
  Li  Li9  1  0.99606659  0.14676609  0.25927484  1
  Y  Y10  1  0.17965255  0.98967033  0.30324575  1
  Y  Y11  1  0.68466351  0.45294261  0.53611220  1
