# generated using pymatgen
data_Li2Y2As4P2Se
_symmetry_space_group_name_H-M   'P 1'
_cell_length_a   4.86257555
_cell_length_b   5.02728682
_cell_length_c   6.80867668
_cell_angle_alpha   94.79852459
_cell_angle_beta   99.75111279
_cell_angle_gamma   108.17742970
_symmetry_Int_Tables_number   1
_chemical_formula_structural   Li2Y2As4P2Se
_chemical_formula_sum   'Li2 Y2 As4 P2 Se1'
_cell_volume   154.18644737
_cell_formula_units_Z   1
loop_
 _symmetry_equiv_pos_site_id
 _symmetry_equiv_pos_as_xyz
  1  'x, y, z'
loop_
 _atom_site_type_symbol
 _atom_site_label
 _atom_site_symmetry_multiplicity
 _atom_site_fract_x
 _atom_site_fract_y
 _atom_site_fract_z
 _atom_site_occupancy
  Se  Se0  1  0.12500000  0.00000000  0.25000000  1
  P  P1  1  0.00000000  0.00000000  0.00000000  1
  P  P2  1  0.37500000  0.00000000  0.25000000  1
  As  As3  1  0.25000000  0.25000000  0.25000000  1
  As  As4  1  0.00000000  0.25000000  0.12500000  1
  As  As5  1  0.53868380  0.62873543  0.53264584  1
  As  As6  1  0.97195793  0.84704817  0.55780860  1
  Li  Li7  1  0.18598030  0.70429432  0.24655084  1
  Li  Li8  1  0.21271720  0.24088613  0.63776236  1
  Y  Y9  1  0.36963805  0.04378531  0.18946525  1
  Y  Y10  1  0.34821963  0.63386012  0.47008648  1
