# generated using pymatgen
data_Li2YP4Pb2F2
_symmetry_space_group_name_H-M   'P 1'
_cell_length_a   6.09727977
_cell_length_b   5.94657769
_cell_length_c   8.03820538
_cell_angle_alpha   95.14157306
_cell_angle_beta   101.19727721
_cell_angle_gamma   110.65165550
_symmetry_Int_Tables_number   1
_chemical_formula_structural   Li2YP4Pb2F2
_chemical_formula_sum   'Li2 Y1 P4 Pb2 F2'
_cell_volume   263.53126399
_cell_formula_units_Z   1
loop_
 _symmetry_equiv_pos_site_id
 _symmetry_equiv_pos_as_xyz
  1  'x, y, z'
loop_
 _atom_site_type_symbol
 _atom_site_label
 _atom_site_symmetry_multiplicity
 _atom_site_fract_x
 _atom_site_fract_y
 _atom_site_fract_z
 _atom_site_occupancy
  P  P0  1  0.00000000  0.00000000  0.00000000  1
  P  P1  1  0.50000000  0.50000000  0.50000000  1
  P  P2  1  0.25000000  0.25000000  0.25000000  1
  P  P3  1  0.75000000  0.25000000  0.00000000  1
  Pb  Pb4  1  0.25000000  0.75000000  0.50000000  1
  Pb  Pb5  1  0.92280887  0.08521471  0.60800382  1
  F  F6  1  0.22251046  0.46434676  0.57231162  1
  F  F7  1  0.87163364  0.10677796  0.73590829  1
  Li  Li8  1  0.71295606  0.26304101  0.98048886  1
  Li  Li9  1  0.05757063  0.98017166  0.75883830  1
  Y  Y10  1  0.40852836  0.69493140  0.28852574  1
