# generated using pymatgen
data_Li2Y2As4P3Se2
_symmetry_space_group_name_H-M   'P 1'
_cell_length_a   5.02109844
_cell_length_b   5.13309630
_cell_length_c   6.96797657
_cell_angle_alpha   94.68793359
_cell_angle_beta   100.20934475
_cell_angle_gamma   108.82956604
_symmetry_Int_Tables_number   1
_chemical_formula_structural   Li2Y2As4P3Se2
_chemical_formula_sum   'Li2 Y2 As4 P3 Se2'
_cell_volume   165.41730073
_cell_formula_units_Z   1
loop_
 _symmetry_equiv_pos_site_id
 _symmetry_equiv_pos_as_xyz
  1  'x, y, z'
loop_
 _atom_site_type_symbol
 _atom_site_label
 _atom_site_symmetry_multiplicity
 _atom_site_fract_x
 _atom_site_fract_y
 _atom_site_fract_z
 _atom_site_occupancy
  Se  Se0  1  0.00000000  0.00000000  0.00000000  1
  Se  Se1  1  0.50000000  0.50000000  0.50000000  1
  P  P2  1  0.25000000  0.25000000  0.25000000  1
  P  P3  1  0.75000000  0.25000000  0.00000000  1
  P  P4  1  0.25000000  0.75000000  0.50000000  1
  As  As5  1  0.72986960  0.61067506  0.27854240  1
  As  As6  1  0.04583229  0.77937659  0.86671221  1
  As  As7  1  0.30577947  0.43387119  0.24997370  1
  As  As8  1  0.09084514  0.16495139  0.88472327  1
  Li  Li9  1  0.01906024  0.54515229  0.04844679  1
  Li  Li10  1  0.02856949  0.13184979  0.65783289  1
  Y  Y11  1  0.42143126  0.32804231  0.47038253  1
  Y  Y12  1  0.79762591  0.22689191  0.95131230  1
