# generated using pymatgen
data_LiPO3
_symmetry_space_group_name_H-M   'P 1'
_cell_length_a   6.44067802
_cell_length_b   6.44067802
_cell_length_c   31.71789562
_cell_angle_alpha   90.00000000
_cell_angle_beta   90.00000000
_cell_angle_gamma   120.00000000
_symmetry_Int_Tables_number   1
_chemical_formula_structural   LiPO3
_chemical_formula_sum   'Li24 P24 O72'
_cell_volume   1139.45761347
_cell_formula_units_Z   24
loop_
 _symmetry_equiv_pos_site_id
 _symmetry_equiv_pos_as_xyz
  1  'x, y, z'
loop_
 _atom_site_type_symbol
 _atom_site_label
 _atom_site_symmetry_multiplicity
 _atom_site_fract_x
 _atom_site_fract_y
 _atom_site_fract_z
 _atom_site_occupancy
  Li  Li0  1  0.50000000  0.00000000  -0.00000000  1
  Li  Li1  1  0.00000000  0.50000000  0.00000000  1
  Li  Li2  1  0.50000000  0.50000000  0.00000000  1
  Li  Li3  1  0.00000000  0.50000000  0.50000000  1
  Li  Li4  1  0.50000000  0.00000000  0.50000000  1
  Li  Li5  1  0.50000000  0.50000000  0.50000000  1
  Li  Li6  1  0.16666667  0.33333333  0.33333333  1
  Li  Li7  1  0.66666667  0.83333333  0.33333333  1
  Li  Li8  1  0.16666667  0.83333333  0.33333333  1
  Li  Li9  1  0.66666667  0.83333333  0.83333333  1
  Li  Li10  1  0.16666667  0.33333333  0.83333333  1
  Li  Li11  1  0.16666667  0.83333333  0.83333333  1
  Li  Li12  1  0.83333333  0.66666667  0.66666667  1
  Li  Li13  1  0.33333333  0.16666667  0.66666667  1
  Li  Li14  1  0.83333333  0.16666667  0.66666667  1
  Li  Li15  1  0.33333333  0.16666667  0.16666667  1
  Li  Li16  1  0.83333333  0.66666667  0.16666667  1
  Li  Li17  1  0.83333333  0.16666667  0.16666667  1
  Li  Li18  1  0.00000000  0.00000000  0.25000000  1
  Li  Li19  1  0.00000000  0.00000000  0.75000000  1
  Li  Li20  1  0.66666667  0.33333333  0.58333333  1
  Li  Li21  1  0.66666667  0.33333333  0.08333333  1
  Li  Li22  1  0.33333333  0.66666667  0.91666667  1
  Li  Li23  1  0.33333333  0.66666667  0.41666667  1
  O  O24  1  0.71842369  0.61469607  0.80553976  1
  O  O25  1  -0.61469607  0.10372762  0.80553976  1
  O  O26  1  -0.10372762  -0.71842369  0.80553976  1
  O  O27  1  0.61469607  0.71842369  -0.30553976  1
  O  O28  1  0.10372762  -0.61469607  -0.30553976  1
  O  O29  1  -0.71842369  -0.10372762  -0.30553976  1
  O  O30  1  -0.71842369  -0.61469607  -0.80553976  1
  O  O31  1  0.61469607  -0.10372762  -0.80553976  1
  O  O32  1  0.10372762  0.71842369  -0.80553976  1
  O  O33  1  -0.61469607  -0.71842369  1.30553976  1
  O  O34  1  -0.10372762  0.61469607  1.30553976  1
  O  O35  1  0.71842369  0.10372762  1.30553976  1
  O  O36  1  1.38509035  0.94802940  1.13887310  1
  O  O37  1  0.05197060  0.43706095  1.13887310  1
  O  O38  1  0.56293905  -0.38509035  1.13887310  1
  O  O39  1  1.28136273  1.05175702  0.02779357  1
  O  O40  1  0.77039429  -0.28136273  0.02779357  1
  O  O41  1  -0.05175702  0.22960571  0.02779357  1
  O  O42  1  -0.05175702  -0.28136273  -0.47220643  1
  O  O43  1  1.28136273  0.22960571  -0.47220643  1
  O  O44  1  0.77039429  1.05175702  -0.47220643  1
  O  O45  1  0.05197060  -0.38509035  1.63887310  1
  O  O46  1  0.56293905  0.94802940  1.63887310  1
  O  O47  1  1.38509035  0.43706095  1.63887310  1
  O  O48  1  1.05175702  1.28136273  1.47220643  1
  O  O49  1  -0.28136273  0.77039429  1.47220643  1
  O  O50  1  0.22960571  -0.05175702  1.47220643  1
  O  O51  1  0.94802940  1.38509035  0.36112690  1
  O  O52  1  0.43706095  0.05197060  0.36112690  1
  O  O53  1  -0.38509035  0.56293905  0.36112690  1
  O  O54  1  -0.38509035  0.05197060  -0.13887310  1
  O  O55  1  0.94802940  0.56293905  -0.13887310  1
  O  O56  1  0.43706095  1.38509035  -0.13887310  1
  O  O57  1  -0.28136273  -0.05175702  1.97220643  1
  O  O58  1  0.22960571  1.28136273  1.97220643  1
  O  O59  1  1.05175702  0.77039429  1.97220643  1
  O  O60  1  0.60654904  0.13539949  0.75977657  1
  O  O61  1  0.86460051  0.47114954  0.75977657  1
  O  O62  1  0.52885046  0.39345096  0.75977657  1
  O  O63  1  0.13539949  0.60654904  0.74022343  1
  O  O64  1  0.47114954  0.86460051  0.74022343  1
  O  O65  1  0.39345096  0.52885046  0.74022343  1
  O  O66  1  0.39345096  0.86460051  0.24022343  1
  O  O67  1  0.13539949  0.52885046  0.24022343  1
  O  O68  1  0.47114954  0.60654904  0.24022343  1
  O  O69  1  0.86460051  0.39345096  0.25977657  1
  O  O70  1  0.52885046  0.13539949  0.25977657  1
  O  O71  1  0.60654904  0.47114954  0.25977657  1
  O  O72  1  0.27321570  0.46873283  0.09310991  1
  O  O73  1  0.53126717  0.80448288  0.09310991  1
  O  O74  1  0.19551712  0.72678430  0.09310991  1
  O  O75  1  0.80206616  0.93988237  0.07355676  1
  O  O76  1  0.13781621  0.19793384  0.07355676  1
  O  O77  1  0.06011763  0.86218379  0.07355676  1
  O  O78  1  0.06011763  0.19793384  0.57355676  1
  O  O79  1  0.80206616  0.86218379  0.57355676  1
  O  O80  1  0.13781621  0.93988237  0.57355676  1
  O  O81  1  0.53126717  0.72678430  0.59310991  1
  O  O82  1  0.19551712  0.46873283  0.59310991  1
  O  O83  1  0.27321570  0.80448288  0.59310991  1
  O  O84  1  0.93988237  0.80206616  0.42644324  1
  O  O85  1  0.19793384  0.13781621  0.42644324  1
  O  O86  1  0.86218379  0.06011763  0.42644324  1
  O  O87  1  0.46873283  0.27321570  0.40689009  1
  O  O88  1  0.80448288  0.53126717  0.40689009  1
  O  O89  1  0.72678430  0.19551712  0.40689009  1
  O  O90  1  0.72678430  0.53126717  0.90689009  1
  O  O91  1  0.46873283  0.19551712  0.90689009  1
  O  O92  1  0.80448288  0.27321570  0.90689009  1
  O  O93  1  0.19793384  0.06011763  0.92644324  1
  O  O94  1  0.86218379  0.80206616  0.92644324  1
  O  O95  1  0.93988237  0.13781621  0.92644324  1
  P  P96  1  0.00000000  0.00000000  0.00000000  1
  P  P97  1  0.00000000  0.00000000  0.50000000  1
  P  P98  1  0.66666667  0.33333333  0.33333333  1
  P  P99  1  0.66666667  0.33333333  0.83333333  1
  P  P100  1  0.33333333  0.66666667  0.66666667  1
  P  P101  1  0.33333333  0.66666667  0.16666667  1
  P  P102  1  0.20042215  0.00000000  0.25000000  1
  P  P103  1  0.00000000  0.20042215  0.25000000  1
  P  P104  1  0.79957785  0.79957785  0.25000000  1
  P  P105  1  0.79957785  0.00000000  0.75000000  1
  P  P106  1  0.00000000  0.79957785  0.75000000  1
  P  P107  1  0.20042215  0.20042215  0.75000000  1
  P  P108  1  0.86708882  0.33333333  0.58333333  1
  P  P109  1  0.66666667  0.53375549  0.58333333  1
  P  P110  1  0.46624451  0.13291118  0.58333333  1
  P  P111  1  0.46624451  0.33333333  0.08333333  1
  P  P112  1  0.66666667  0.13291118  0.08333333  1
  P  P113  1  0.86708882  0.53375549  0.08333333  1
  P  P114  1  0.53375549  0.66666667  0.91666667  1
  P  P115  1  0.33333333  0.86708882  0.91666667  1
  P  P116  1  0.13291118  0.46624451  0.91666667  1
  P  P117  1  0.13291118  0.66666667  0.41666667  1
  P  P118  1  0.33333333  0.46624451  0.41666667  1
  P  P119  1  0.53375549  0.86708882  0.41666667  1
