# generated using pymatgen
data_Li4TeF2
_symmetry_space_group_name_H-M   'P 1'
_cell_length_a   15.59626983
_cell_length_b   15.59626983
_cell_length_c   8.36504683
_cell_angle_alpha   90.00000000
_cell_angle_beta   90.00000000
_cell_angle_gamma   90.00000000
_symmetry_Int_Tables_number   1
_chemical_formula_structural   Li4TeF2
_chemical_formula_sum   'Li96 Te24 F48'
_cell_volume   2034.74437788
_cell_formula_units_Z   24
loop_
 _symmetry_equiv_pos_site_id
 _symmetry_equiv_pos_as_xyz
  1  'x, y, z'
loop_
 _atom_site_type_symbol
 _atom_site_label
 _atom_site_symmetry_multiplicity
 _atom_site_fract_x
 _atom_site_fract_y
 _atom_site_fract_z
 _atom_site_occupancy
  F  F0  1  0.30068094  0.49516607  0.50399310  1
  F  F1  1  0.19931906  -0.49516607  1.00399310  1
  F  F2  1  -0.24516607  1.05068094  0.75399310  1
  F  F3  1  0.74516607  -0.05068094  1.25399310  1
  F  F4  1  0.19931906  0.49516607  -0.50399310  1
  F  F5  1  0.30068094  -0.49516607  -0.00399310  1
  F  F6  1  0.74516607  1.05068094  0.24600690  1
  F  F7  1  -0.24516607  -0.05068094  -0.25399310  1
  F  F8  1  -0.30068094  -0.49516607  -0.50399310  1
  F  F9  1  0.80068094  0.49516607  -0.00399310  1
  F  F10  1  1.24516607  -0.05068094  0.24600690  1
  F  F11  1  0.25483393  1.05068094  -0.25399310  1
  F  F12  1  0.80068094  -0.49516607  0.50399310  1
  F  F13  1  -0.30068094  0.49516607  1.00399310  1
  F  F14  1  0.25483393  -0.05068094  0.75399310  1
  F  F15  1  1.24516607  1.05068094  1.25399310  1
  F  F16  1  0.80068094  0.99516607  1.00399310  1
  F  F17  1  0.69931906  0.00483393  1.50399310  1
  F  F18  1  0.25483393  1.55068094  1.25399310  1
  F  F19  1  1.24516607  0.44931906  1.75399310  1
  F  F20  1  0.69931906  0.99516607  -0.00399310  1
  F  F21  1  0.80068094  0.00483393  0.49600690  1
  F  F22  1  1.24516607  1.55068094  0.74600690  1
  F  F23  1  0.25483393  0.44931906  0.24600690  1
  F  F24  1  0.19931906  0.00483393  -0.00399310  1
  F  F25  1  1.30068094  0.99516607  0.49600690  1
  F  F26  1  1.74516607  0.44931906  0.74600690  1
  F  F27  1  0.75483393  1.55068094  0.24600690  1
  F  F28  1  1.30068094  0.00483393  1.00399310  1
  F  F29  1  0.19931906  0.99516607  1.50399310  1
  F  F30  1  0.75483393  0.44931906  1.25399310  1
  F  F31  1  1.74516607  1.55068094  1.75399310  1
  F  F32  1  0.00000000  0.25000000  0.28300855  1
  F  F33  1  0.00000000  0.75000000  0.53300855  1
  F  F34  1  0.50000000  0.25000000  0.71699145  1
  F  F35  1  0.50000000  0.75000000  0.46699145  1
  F  F36  1  0.00000000  0.75000000  0.71699145  1
  F  F37  1  0.00000000  0.25000000  0.46699145  1
  F  F38  1  0.50000000  0.75000000  0.28300855  1
  F  F39  1  0.50000000  0.25000000  0.53300855  1
  F  F40  1  0.50000000  0.75000000  0.78300855  1
  F  F41  1  0.50000000  0.25000000  0.03300855  1
  F  F42  1  0.00000000  0.75000000  0.21699145  1
  F  F43  1  0.00000000  0.25000000  0.96699145  1
  F  F44  1  0.50000000  0.25000000  0.21699145  1
  F  F45  1  0.50000000  0.75000000  0.96699145  1
  F  F46  1  0.00000000  0.25000000  0.78300855  1
  F  F47  1  0.00000000  0.75000000  0.03300855  1
  Li  Li48  1  0.55583746  0.39166021  0.45423415  1
  Li  Li49  1  0.94416254  0.60833979  0.95423415  1
  Li  Li50  1  0.85833979  0.30583746  0.70423415  1
  Li  Li51  1  0.64166021  0.69416254  0.20423415  1
  Li  Li52  1  0.94416254  0.39166021  0.54576585  1
  Li  Li53  1  0.55583746  0.60833979  0.04576585  1
  Li  Li54  1  0.64166021  0.30583746  0.29576585  1
  Li  Li55  1  0.85833979  0.69416254  0.79576585  1
  Li  Li56  1  0.44416254  0.60833979  0.54576585  1
  Li  Li57  1  0.05583746  0.39166021  0.04576585  1
  Li  Li58  1  0.14166021  0.69416254  0.29576585  1
  Li  Li59  1  0.35833979  0.30583746  0.79576585  1
  Li  Li60  1  0.05583746  0.60833979  0.45423415  1
  Li  Li61  1  0.44416254  0.39166021  0.95423415  1
  Li  Li62  1  0.35833979  0.69416254  0.70423415  1
  Li  Li63  1  0.14166021  0.30583746  0.20423415  1
  Li  Li64  1  0.05583746  0.89166021  0.95423415  1
  Li  Li65  1  0.44416254  0.10833979  0.45423415  1
  Li  Li66  1  0.35833979  0.80583746  0.20423415  1
  Li  Li67  1  0.14166021  0.19416254  0.70423415  1
  Li  Li68  1  0.44416254  0.89166021  0.04576585  1
  Li  Li69  1  0.05583746  0.10833979  0.54576585  1
  Li  Li70  1  0.14166021  0.80583746  0.79576585  1
  Li  Li71  1  0.35833979  0.19416254  0.29576585  1
  Li  Li72  1  0.94416254  0.10833979  0.04576585  1
  Li  Li73  1  0.55583746  0.89166021  0.54576585  1
  Li  Li74  1  0.64166021  0.19416254  0.79576585  1
  Li  Li75  1  0.85833979  0.80583746  0.29576585  1
  Li  Li76  1  0.55583746  0.10833979  0.95423415  1
  Li  Li77  1  0.94416254  0.89166021  0.45423415  1
  Li  Li78  1  0.85833979  0.19416254  0.20423415  1
  Li  Li79  1  0.64166021  0.80583746  0.70423415  1
  Li  Li80  1  0.27870471  0.72933322  0.31262548  1
  Li  Li81  1  0.22129529  0.27066678  0.81262548  1
  Li  Li82  1  0.52066678  0.02870471  0.56262548  1
  Li  Li83  1  0.97933322  0.97129529  0.06262548  1
  Li  Li84  1  0.22129529  0.72933322  0.68737452  1
  Li  Li85  1  0.27870471  0.27066678  0.18737452  1
  Li  Li86  1  0.97933322  0.02870471  0.43737452  1
  Li  Li87  1  0.52066678  0.97129529  0.93737452  1
  Li  Li88  1  0.72129529  0.27066678  0.68737452  1
  Li  Li89  1  0.77870471  0.72933322  0.18737452  1
  Li  Li90  1  0.47933322  0.97129529  0.43737452  1
  Li  Li91  1  0.02066678  0.02870471  0.93737452  1
  Li  Li92  1  0.77870471  0.27066678  0.31262548  1
  Li  Li93  1  0.72129529  0.72933322  0.81262548  1
  Li  Li94  1  0.02066678  0.97129529  0.56262548  1
  Li  Li95  1  0.47933322  0.02870471  0.06262548  1
  Li  Li96  1  0.77870471  0.22933322  0.81262548  1
  Li  Li97  1  0.72129529  0.77066678  0.31262548  1
  Li  Li98  1  0.02066678  0.52870471  0.06262548  1
  Li  Li99  1  0.47933322  0.47129529  0.56262548  1
  Li  Li100  1  0.72129529  0.22933322  0.18737452  1
  Li  Li101  1  0.77870471  0.77066678  0.68737452  1
  Li  Li102  1  0.47933322  0.52870471  0.93737452  1
  Li  Li103  1  0.02066678  0.47129529  0.43737452  1
  Li  Li104  1  0.22129529  0.77066678  0.18737452  1
  Li  Li105  1  0.27870471  0.22933322  0.68737452  1
  Li  Li106  1  0.97933322  0.47129529  0.93737452  1
  Li  Li107  1  0.52066678  0.52870471  0.43737452  1
  Li  Li108  1  0.27870471  0.77066678  0.81262548  1
  Li  Li109  1  0.22129529  0.22933322  0.31262548  1
  Li  Li110  1  0.52066678  0.47129529  0.06262548  1
  Li  Li111  1  0.97933322  0.52870471  0.56262548  1
  Li  Li112  1  0.33558809  0.58558809  0.12500000  1
  Li  Li113  1  0.16441191  0.41441191  0.62500000  1
  Li  Li114  1  0.66441191  0.08558809  0.37500000  1
  Li  Li115  1  0.83558809  0.91441191  0.87500000  1
  Li  Li116  1  0.66441191  0.41441191  0.87500000  1
  Li  Li117  1  0.83558809  0.58558809  0.37500000  1
  Li  Li118  1  0.33558809  0.91441191  0.62500000  1
  Li  Li119  1  0.16441191  0.08558809  0.12500000  1
  Li  Li120  1  0.83558809  0.08558809  0.62500000  1
  Li  Li121  1  0.66441191  0.91441191  0.12500000  1
  Li  Li122  1  0.16441191  0.58558809  0.87500000  1
  Li  Li123  1  0.33558809  0.41441191  0.37500000  1
  Li  Li124  1  0.16441191  0.91441191  0.37500000  1
  Li  Li125  1  0.33558809  0.08558809  0.87500000  1
  Li  Li126  1  0.83558809  0.41441191  0.12500000  1
  Li  Li127  1  0.66441191  0.58558809  0.62500000  1
  Li  Li128  1  0.06222140  0.00000000  0.25000000  1
  Li  Li129  1  0.43777860  0.00000000  0.75000000  1
  Li  Li130  1  0.25000000  0.81222140  0.50000000  1
  Li  Li131  1  0.25000000  0.18777860  -0.00000000  1
  Li  Li132  1  0.93777860  0.00000000  0.75000000  1
  Li  Li133  1  0.56222140  0.00000000  0.25000000  1
  Li  Li134  1  0.75000000  0.18777860  0.50000000  1
  Li  Li135  1  0.75000000  0.81222140  0.00000000  1
  Li  Li136  1  0.56222140  0.50000000  0.75000000  1
  Li  Li137  1  0.93777860  0.50000000  0.25000000  1
  Li  Li138  1  0.75000000  0.31222140  0.00000000  1
  Li  Li139  1  0.75000000  0.68777860  0.50000000  1
  Li  Li140  1  0.43777860  0.50000000  0.25000000  1
  Li  Li141  1  0.06222140  0.50000000  0.75000000  1
  Li  Li142  1  0.25000000  0.68777860  0.00000000  1
  Li  Li143  1  0.25000000  0.31222140  0.50000000  1
  Te  Te144  1  0.81944083  0.06944083  0.12500000  1
  Te  Te145  1  0.68055917  0.93055917  0.62500000  1
  Te  Te146  1  0.18055917  0.56944083  0.37500000  1
  Te  Te147  1  0.31944083  0.43055917  0.87500000  1
  Te  Te148  1  0.18055917  0.93055917  0.87500000  1
  Te  Te149  1  0.31944083  0.06944083  0.37500000  1
  Te  Te150  1  0.81944083  0.43055917  0.62500000  1
  Te  Te151  1  0.68055917  0.56944083  0.12500000  1
  Te  Te152  1  0.31944083  0.56944083  0.62500000  1
  Te  Te153  1  0.18055917  0.43055917  0.12500000  1
  Te  Te154  1  0.68055917  0.06944083  0.87500000  1
  Te  Te155  1  0.81944083  0.93055917  0.37500000  1
  Te  Te156  1  0.68055917  0.43055917  0.37500000  1
  Te  Te157  1  0.81944083  0.56944083  0.87500000  1
  Te  Te158  1  0.31944083  0.93055917  0.12500000  1
  Te  Te159  1  0.18055917  0.06944083  0.62500000  1
  Te  Te160  1  0.00000000  0.25000000  0.12500000  1
  Te  Te161  1  0.00000000  0.75000000  0.37500000  1
  Te  Te162  1  0.00000000  0.75000000  0.87500000  1
  Te  Te163  1  0.00000000  0.25000000  0.62500000  1
  Te  Te164  1  0.50000000  0.75000000  0.62500000  1
  Te  Te165  1  0.50000000  0.25000000  0.87500000  1
  Te  Te166  1  0.50000000  0.25000000  0.37500000  1
  Te  Te167  1  0.50000000  0.75000000  0.12500000  1
