# generated using pymatgen
data_LiCaF3
_symmetry_space_group_name_H-M   'P 1'
_cell_length_a   14.79877559
_cell_length_b   14.79877559
_cell_length_c   9.80767468
_cell_angle_alpha   90.00000000
_cell_angle_beta   90.00000000
_cell_angle_gamma   120.00000000
_symmetry_Int_Tables_number   1
_chemical_formula_structural   LiCaF3
_chemical_formula_sum   'Li18 Ca18 F54'
_cell_volume   1860.15122552
_cell_formula_units_Z   18
loop_
 _symmetry_equiv_pos_site_id
 _symmetry_equiv_pos_as_xyz
  1  'x, y, z'
loop_
 _atom_site_type_symbol
 _atom_site_label
 _atom_site_symmetry_multiplicity
 _atom_site_fract_x
 _atom_site_fract_y
 _atom_site_fract_z
 _atom_site_occupancy
  Ca  Ca0  1  0.50000000  0.00000000  -0.00000000  1
  Ca  Ca1  1  0.00000000  0.50000000  0.00000000  1
  Ca  Ca2  1  0.50000000  0.50000000  -0.00000000  1
  Ca  Ca3  1  0.00000000  0.50000000  0.50000000  1
  Ca  Ca4  1  0.50000000  0.00000000  0.50000000  1
  Ca  Ca5  1  0.50000000  0.50000000  0.50000000  1
  Ca  Ca6  1  0.16666667  0.33333333  0.33333333  1
  Ca  Ca7  1  0.66666667  0.83333333  0.33333333  1
  Ca  Ca8  1  0.16666667  0.83333333  0.33333333  1
  Ca  Ca9  1  0.66666667  0.83333333  0.83333333  1
  Ca  Ca10  1  0.16666667  0.33333333  0.83333333  1
  Ca  Ca11  1  0.16666667  0.83333333  0.83333333  1
  Ca  Ca12  1  0.83333333  0.66666667  0.66666667  1
  Ca  Ca13  1  0.33333333  0.16666667  0.66666667  1
  Ca  Ca14  1  0.83333333  0.16666667  0.66666667  1
  Ca  Ca15  1  0.33333333  0.16666667  0.16666667  1
  Ca  Ca16  1  0.83333333  0.66666667  0.16666667  1
  Ca  Ca17  1  0.83333333  0.16666667  0.16666667  1
  F  F18  1  0.00000000  0.00000000  0.25000000  1
  F  F19  1  0.00000000  0.00000000  0.75000000  1
  F  F20  1  0.66666667  0.33333333  0.58333333  1
  F  F21  1  0.66666667  0.33333333  0.08333333  1
  F  F22  1  0.33333333  0.66666667  0.91666667  1
  F  F23  1  0.33333333  0.66666667  0.41666667  1
  F  F24  1  0.00000000  0.00000000  0.43722532  1
  F  F25  1  0.00000000  0.00000000  0.06277468  1
  F  F26  1  0.00000000  0.00000000  0.56277468  1
  F  F27  1  0.00000000  0.00000000  0.93722532  1
  F  F28  1  0.66666667  0.33333333  0.77055866  1
  F  F29  1  0.66666667  0.33333333  0.39610801  1
  F  F30  1  0.66666667  0.33333333  0.89610801  1
  F  F31  1  0.66666667  0.33333333  0.27055866  1
  F  F32  1  0.33333333  0.66666667  0.10389199  1
  F  F33  1  0.33333333  0.66666667  0.72944134  1
  F  F34  1  0.33333333  0.66666667  0.22944134  1
  F  F35  1  0.33333333  0.66666667  0.60389199  1
  F  F36  1  0.09105704  0.81263773  0.76656909  1
  F  F37  1  -0.81263773  -0.72158068  0.76656909  1
  F  F38  1  0.72158068  -0.09105704  0.76656909  1
  F  F39  1  0.81263773  0.09105704  -0.26656909  1
  F  F40  1  -0.72158068  -0.81263773  -0.26656909  1
  F  F41  1  -0.09105704  0.72158068  -0.26656909  1
  F  F42  1  -0.09105704  -0.81263773  -0.76656909  1
  F  F43  1  0.81263773  0.72158068  -0.76656909  1
  F  F44  1  -0.72158068  0.09105704  -0.76656909  1
  F  F45  1  -0.81263773  -0.09105704  1.26656909  1
  F  F46  1  0.72158068  0.81263773  1.26656909  1
  F  F47  1  0.09105704  -0.72158068  1.26656909  1
  F  F48  1  0.75772371  1.14597106  1.09990242  1
  F  F49  1  -0.14597106  -0.38824735  1.09990242  1
  F  F50  1  1.38824735  0.24227629  1.09990242  1
  F  F51  1  1.47930439  0.42439038  0.06676425  1
  F  F52  1  -0.05491402  -0.47930439  0.06676425  1
  F  F53  1  0.57560962  1.05491402  0.06676425  1
  F  F54  1  0.57560962  -0.47930439  -0.43323575  1
  F  F55  1  1.47930439  1.05491402  -0.43323575  1
  F  F56  1  -0.05491402  0.42439038  -0.43323575  1
  F  F57  1  -0.14597106  0.24227629  1.59990242  1
  F  F58  1  1.38824735  1.14597106  1.59990242  1
  F  F59  1  0.75772371  -0.38824735  1.59990242  1
  F  F60  1  0.42439038  1.47930439  1.43323575  1
  F  F61  1  -0.47930439  -0.05491402  1.43323575  1
  F  F62  1  1.05491402  0.57560962  1.43323575  1
  F  F63  1  1.14597106  0.75772371  0.40009758  1
  F  F64  1  -0.38824735  -0.14597106  0.40009758  1
  F  F65  1  0.24227629  1.38824735  0.40009758  1
  F  F66  1  0.24227629  -0.14597106  -0.09990242  1
  F  F67  1  1.14597106  1.38824735  -0.09990242  1
  F  F68  1  -0.38824735  0.75772371  -0.09990242  1
  F  F69  1  -0.47930439  0.57560962  1.93323575  1
  F  F70  1  1.05491402  1.47930439  1.93323575  1
  F  F71  1  0.42439038  -0.05491402  1.93323575  1
  Li  Li72  1  0.35488394  0.00000000  0.25000000  1
  Li  Li73  1  0.00000000  0.35488394  0.25000000  1
  Li  Li74  1  0.64511606  0.64511606  0.25000000  1
  Li  Li75  1  0.64511606  0.00000000  0.75000000  1
  Li  Li76  1  0.00000000  0.64511606  0.75000000  1
  Li  Li77  1  0.35488394  0.35488394  0.75000000  1
  Li  Li78  1  0.02155061  0.33333333  0.58333333  1
  Li  Li79  1  0.66666667  0.68821728  0.58333333  1
  Li  Li80  1  0.31178272  0.97844939  0.58333333  1
  Li  Li81  1  0.31178272  0.33333333  0.08333333  1
  Li  Li82  1  0.66666667  0.97844939  0.08333333  1
  Li  Li83  1  0.02155061  0.68821728  0.08333333  1
  Li  Li84  1  0.68821728  0.66666667  0.91666667  1
  Li  Li85  1  0.33333333  0.02155061  0.91666667  1
  Li  Li86  1  0.97844939  0.31178272  0.91666667  1
  Li  Li87  1  0.97844939  0.66666667  0.41666667  1
  Li  Li88  1  0.33333333  0.31178272  0.41666667  1
  Li  Li89  1  0.68821728  0.02155061  0.41666667  1
