# generated using pymatgen
data_Li2Y2P3Se2
_symmetry_space_group_name_H-M   'P 1'
_cell_length_a   5.02482730
_cell_length_b   5.22732262
_cell_length_c   7.07536589
_cell_angle_alpha   94.66087219
_cell_angle_beta   100.15041065
_cell_angle_gamma   108.72087116
_symmetry_Int_Tables_number   1
_chemical_formula_structural   Li2Y2P3Se2
_chemical_formula_sum   'Li2 Y2 P3 Se2'
_cell_volume   171.35338899
_cell_formula_units_Z   1
loop_
 _symmetry_equiv_pos_site_id
 _symmetry_equiv_pos_as_xyz
  1  'x, y, z'
loop_
 _atom_site_type_symbol
 _atom_site_label
 _atom_site_symmetry_multiplicity
 _atom_site_fract_x
 _atom_site_fract_y
 _atom_site_fract_z
 _atom_site_occupancy
  Se  Se0  1  0.12500000  0.00000000  0.25000000  1
  Se  Se1  1  0.00000000  0.00000000  0.00000000  1
  P  P2  1  0.37500000  0.00000000  0.25000000  1
  P  P3  1  0.25000000  0.25000000  0.25000000  1
  P  P4  1  0.00000000  0.25000000  0.12500000  1
  Li  Li5  1  0.07698784  0.93488642  0.68218740  1
  Li  Li6  1  0.89819863  0.75472222  0.46025656  1
  Y  Y7  1  0.09809074  0.16691951  0.09382931  1
  Y  Y8  1  0.67122199  0.88176380  0.44718757  1
