# generated using pymatgen
data_LiF
_symmetry_space_group_name_H-M   'P 1'
_cell_length_a   9.40022892
_cell_length_b   9.40022892
_cell_length_c   7.79878005
_cell_angle_alpha   90.00000000
_cell_angle_beta   90.00000000
_cell_angle_gamma   120.00000000
_symmetry_Int_Tables_number   1
_chemical_formula_structural   LiF
_chemical_formula_sum   'Li21 F21'
_cell_volume   596.80735145
_cell_formula_units_Z   21
loop_
 _symmetry_equiv_pos_site_id
 _symmetry_equiv_pos_as_xyz
  1  'x, y, z'
loop_
 _atom_site_type_symbol
 _atom_site_label
 _atom_site_symmetry_multiplicity
 _atom_site_fract_x
 _atom_site_fract_y
 _atom_site_fract_z
 _atom_site_occupancy
  F  F0  1  0.66666667  0.33333333  0.13149663  1
  F  F1  1  0.66666667  0.33333333  0.86850337  1
  F  F2  1  0.87652672  0.12347328  0.00000000  1
  F  F3  1  0.87652672  0.75305343  0.00000000  1
  F  F4  1  0.24694657  0.12347328  0.00000000  1
  F  F5  1  0.33333333  0.66666667  0.14777938  1
  F  F6  1  0.33333333  0.66666667  0.85222062  1
  F  F7  1  0.92558952  0.67407574  0.72179765  1
  F  F8  1  0.32592426  0.25151378  0.72179765  1
  F  F9  1  0.74848622  0.07441048  0.72179765  1
  F  F10  1  0.32592426  0.07441048  0.27820235  1
  F  F11  1  0.74848622  0.67407574  0.27820235  1
  F  F12  1  0.92558952  0.25151378  0.27820235  1
  F  F13  1  0.00000000  0.00000000  0.50000000  1
  F  F14  1  0.66666667  0.33333333  0.00000000  1
  F  F15  1  0.55142105  0.20224462  0.23947257  1
  F  F16  1  0.79775538  0.34917643  0.23947257  1
  F  F17  1  0.65082357  0.44857895  0.23947257  1
  F  F18  1  0.79775538  0.44857895  0.76052743  1
  F  F19  1  0.65082357  0.20224462  0.76052743  1
  F  F20  1  0.55142105  0.34917643  0.76052743  1
  Li  Li21  1  0.86394618  0.85653463  0.81603227  1
  Li  Li22  1  -0.85653463  0.00741155  0.81603227  1
  Li  Li23  1  -0.00741155  -0.86394618  0.81603227  1
  Li  Li24  1  -0.85653463  -0.86394618  -0.81603227  1
  Li  Li25  1  -0.00741155  0.85653463  -0.81603227  1
  Li  Li26  1  0.86394618  0.00741155  -0.81603227  1
  Li  Li27  1  0.00000000  0.00000000  0.00000000  1
  Li  Li28  1  0.54386044  0.32102065  0.21602386  1
  Li  Li29  1  0.67897935  0.22283979  0.21602386  1
  Li  Li30  1  0.77716021  0.45613956  0.21602386  1
  Li  Li31  1  0.67897935  0.45613956  0.78397614  1
  Li  Li32  1  0.77716021  0.32102065  0.78397614  1
  Li  Li33  1  0.54386044  0.22283979  0.78397614  1
  Li  Li34  1  0.59985437  0.72568346  0.75279313  1
  Li  Li35  1  0.27431654  0.87417092  0.75279313  1
  Li  Li36  1  0.12582908  0.40014563  0.75279313  1
  Li  Li37  1  0.27431654  0.40014563  0.24720687  1
  Li  Li38  1  0.12582908  0.72568346  0.24720687  1
  Li  Li39  1  0.59985437  0.87417092  0.24720687  1
  Li  Li40  1  0.33333333  0.66666667  0.58706687  1
  Li  Li41  1  0.33333333  0.66666667  0.41293313  1
