# generated using pymatgen
data_Li2YMo2As2P3
_symmetry_space_group_name_H-M   'P 1'
_cell_length_a   5.08823809
_cell_length_b   5.20092903
_cell_length_c   7.04015119
_cell_angle_alpha   94.79446155
_cell_angle_beta   100.27559869
_cell_angle_gamma   107.78634284
_symmetry_Int_Tables_number   1
_chemical_formula_structural   Li2YMo2As2P3
_chemical_formula_sum   'Li2 Y1 Mo2 As2 P3'
_cell_volume   172.65125965
_cell_formula_units_Z   1
loop_
 _symmetry_equiv_pos_site_id
 _symmetry_equiv_pos_as_xyz
  1  'x, y, z'
loop_
 _atom_site_type_symbol
 _atom_site_label
 _atom_site_symmetry_multiplicity
 _atom_site_fract_x
 _atom_site_fract_y
 _atom_site_fract_z
 _atom_site_occupancy
  P  P0  1  0.00000000  0.00000000  0.00000000  1
  P  P1  1  0.50000000  0.50000000  0.50000000  1
  P  P2  1  0.25000000  0.25000000  0.25000000  1
  Mo  Mo3  1  0.75000000  0.25000000  0.00000000  1
  Mo  Mo4  1  0.25000000  0.75000000  0.50000000  1
  As  As5  1  0.83992596  0.58607594  0.51292760  1
  As  As6  1  0.52258522  0.95847853  0.72547524  1
  Li  Li7  1  0.23360555  0.19427548  0.01305588  1
  Li  Li8  1  0.72812066  0.41804298  0.57725628  1
  Y  Y9  1  0.46571449  0.61249128  0.06313674  1
