# generated using pymatgen
data_Li2Y2P3
_symmetry_space_group_name_H-M   'P 1'
_cell_length_a   5.22909596
_cell_length_b   5.29774412
_cell_length_c   7.00619270
_cell_angle_alpha   94.28828549
_cell_angle_beta   99.33899427
_cell_angle_gamma   107.22433845
_symmetry_Int_Tables_number   1
_chemical_formula_structural   Li2Y2P3
_chemical_formula_sum   'Li2 Y2 P3'
_cell_volume   181.36688290
_cell_formula_units_Z   1
loop_
 _symmetry_equiv_pos_site_id
 _symmetry_equiv_pos_as_xyz
  1  'x, y, z'
loop_
 _atom_site_type_symbol
 _atom_site_label
 _atom_site_symmetry_multiplicity
 _atom_site_fract_x
 _atom_site_fract_y
 _atom_site_fract_z
 _atom_site_occupancy
  P  P0  1  0.00000000  0.00000000  0.00000000  1
  P  P1  1  0.33300000  0.66700000  0.25000000  1
  P  P2  1  0.66700000  0.33300000  0.50000000  1
  Li  Li3  1  0.00000000  0.00000000  0.75000000  1
  Li  Li4  1  0.47737002  0.27664876  0.86549242  1
  Y  Y5  1  0.75826736  0.37029431  0.91750872  1
  Y  Y6  1  0.41997218  0.07554687  0.47643792  1
