# generated using pymatgen
data_Li4TeF2
_symmetry_space_group_name_H-M   'P 1'
_cell_length_a   26.28699875
_cell_length_b   26.28699875
_cell_length_c   3.89470138
_cell_angle_alpha   90.00000000
_cell_angle_beta   90.00000000
_cell_angle_gamma   90.00000000
_symmetry_Int_Tables_number   1
_chemical_formula_structural   Li4TeF2
_chemical_formula_sum   'Li96 Te24 F48'
_cell_volume   2691.26320032
_cell_formula_units_Z   24
loop_
 _symmetry_equiv_pos_site_id
 _symmetry_equiv_pos_as_xyz
  1  'x, y, z'
loop_
 _atom_site_type_symbol
 _atom_site_label
 _atom_site_symmetry_multiplicity
 _atom_site_fract_x
 _atom_site_fract_y
 _atom_site_fract_z
 _atom_site_occupancy
  F  F0  1  0.47169714  0.72169714  0.12500000  1
  F  F1  1  0.02830286  0.27830286  0.62500000  1
  F  F2  1  0.52830286  0.22169714  0.37500000  1
  F  F3  1  0.97169714  0.77830286  0.87500000  1
  F  F4  1  0.52830286  0.27830286  0.87500000  1
  F  F5  1  0.97169714  0.72169714  0.37500000  1
  F  F6  1  0.47169714  0.77830286  0.62500000  1
  F  F7  1  0.02830286  0.22169714  0.12500000  1
  F  F8  1  0.97169714  0.22169714  0.62500000  1
  F  F9  1  0.52830286  0.77830286  0.12500000  1
  F  F10  1  0.02830286  0.72169714  0.87500000  1
  F  F11  1  0.47169714  0.27830286  0.37500000  1
  F  F12  1  0.02830286  0.77830286  0.37500000  1
  F  F13  1  0.47169714  0.22169714  0.87500000  1
  F  F14  1  0.97169714  0.27830286  0.12500000  1
  F  F15  1  0.52830286  0.72169714  0.62500000  1
  F  F16  1  0.58901674  0.45482260  0.44252676  1
  F  F17  1  -0.08901674  -0.45482260  0.94252676  1
  F  F18  1  -0.20482260  1.33901674  0.69252676  1
  F  F19  1  0.70482260  -0.33901674  1.19252676  1
  F  F20  1  -0.08901674  0.45482260  -0.44252676  1
  F  F21  1  0.58901674  -0.45482260  0.05747324  1
  F  F22  1  0.70482260  1.33901674  0.30747324  1
  F  F23  1  -0.20482260  -0.33901674  -0.19252676  1
  F  F24  1  -0.58901674  -0.45482260  -0.44252676  1
  F  F25  1  1.08901674  0.45482260  0.05747324  1
  F  F26  1  1.20482260  -0.33901674  0.30747324  1
  F  F27  1  0.29517740  1.33901674  -0.19252676  1
  F  F28  1  1.08901674  -0.45482260  0.44252676  1
  F  F29  1  -0.58901674  0.45482260  0.94252676  1
  F  F30  1  0.29517740  -0.33901674  0.69252676  1
  F  F31  1  1.20482260  1.33901674  1.19252676  1
  F  F32  1  1.08901674  0.95482260  0.94252676  1
  F  F33  1  0.41098326  0.04517740  1.44252676  1
  F  F34  1  0.29517740  1.83901674  1.19252676  1
  F  F35  1  1.20482260  0.16098326  1.69252676  1
  F  F36  1  0.41098326  0.95482260  0.05747324  1
  F  F37  1  1.08901674  0.04517740  0.55747324  1
  F  F38  1  1.20482260  1.83901674  0.80747324  1
  F  F39  1  0.29517740  0.16098326  0.30747324  1
  F  F40  1  -0.08901674  0.04517740  0.05747324  1
  F  F41  1  1.58901674  0.95482260  0.55747324  1
  F  F42  1  1.70482260  0.16098326  0.80747324  1
  F  F43  1  0.79517740  1.83901674  0.30747324  1
  F  F44  1  1.58901674  0.04517740  0.94252676  1
  F  F45  1  -0.08901674  0.95482260  1.44252676  1
  F  F46  1  0.79517740  0.16098326  1.19252676  1
  F  F47  1  1.70482260  1.83901674  1.69252676  1
  Li  Li48  1  0.01485562  0.14216845  0.82823278  1
  Li  Li49  1  0.48514438  0.85783155  0.32823278  1
  Li  Li50  1  0.10783155  0.76485562  0.07823278  1
  Li  Li51  1  0.39216845  0.23514438  0.57823278  1
  Li  Li52  1  0.48514438  0.14216845  0.17176722  1
  Li  Li53  1  0.01485562  0.85783155  0.67176722  1
  Li  Li54  1  0.39216845  0.76485562  0.92176722  1
  Li  Li55  1  0.10783155  0.23514438  0.42176722  1
  Li  Li56  1  0.98514438  0.85783155  0.17176722  1
  Li  Li57  1  0.51485562  0.14216845  0.67176722  1
  Li  Li58  1  0.89216845  0.23514438  0.92176722  1
  Li  Li59  1  0.60783155  0.76485562  0.42176722  1
  Li  Li60  1  0.51485562  0.85783155  0.82823278  1
  Li  Li61  1  0.98514438  0.14216845  0.32823278  1
  Li  Li62  1  0.60783155  0.23514438  0.07823278  1
  Li  Li63  1  0.89216845  0.76485562  0.57823278  1
  Li  Li64  1  0.51485562  0.64216845  0.32823278  1
  Li  Li65  1  0.98514438  0.35783155  0.82823278  1
  Li  Li66  1  0.60783155  0.26485562  0.57823278  1
  Li  Li67  1  0.89216845  0.73514438  0.07823278  1
  Li  Li68  1  0.98514438  0.64216845  0.67176722  1
  Li  Li69  1  0.51485562  0.35783155  0.17176722  1
  Li  Li70  1  0.89216845  0.26485562  0.42176722  1
  Li  Li71  1  0.60783155  0.73514438  0.92176722  1
  Li  Li72  1  0.48514438  0.35783155  0.67176722  1
  Li  Li73  1  0.01485562  0.64216845  0.17176722  1
  Li  Li74  1  0.39216845  0.73514438  0.42176722  1
  Li  Li75  1  0.10783155  0.26485562  0.92176722  1
  Li  Li76  1  0.01485562  0.35783155  0.32823278  1
  Li  Li77  1  0.48514438  0.64216845  0.82823278  1
  Li  Li78  1  0.10783155  0.73514438  0.57823278  1
  Li  Li79  1  0.39216845  0.26485562  0.07823278  1
  Li  Li80  1  0.81175745  0.23337677  0.05065544  1
  Li  Li81  1  0.68824255  0.76662323  0.55065544  1
  Li  Li82  1  0.01662323  0.56175745  0.30065544  1
  Li  Li83  1  0.48337677  0.43824255  0.80065544  1
  Li  Li84  1  0.68824255  0.23337677  0.94934456  1
  Li  Li85  1  0.81175745  0.76662323  0.44934456  1
  Li  Li86  1  0.48337677  0.56175745  0.69934456  1
  Li  Li87  1  0.01662323  0.43824255  0.19934456  1
  Li  Li88  1  0.18824255  0.76662323  0.94934456  1
  Li  Li89  1  0.31175745  0.23337677  0.44934456  1
  Li  Li90  1  0.98337677  0.43824255  0.69934456  1
  Li  Li91  1  0.51662323  0.56175745  0.19934456  1
  Li  Li92  1  0.31175745  0.76662323  0.05065544  1
  Li  Li93  1  0.18824255  0.23337677  0.55065544  1
  Li  Li94  1  0.51662323  0.43824255  0.30065544  1
  Li  Li95  1  0.98337677  0.56175745  0.80065544  1
  Li  Li96  1  0.31175745  0.73337677  0.55065544  1
  Li  Li97  1  0.18824255  0.26662323  0.05065544  1
  Li  Li98  1  0.51662323  0.06175745  0.80065544  1
  Li  Li99  1  0.98337677  0.93824255  0.30065544  1
  Li  Li100  1  0.18824255  0.73337677  0.44934456  1
  Li  Li101  1  0.31175745  0.26662323  0.94934456  1
  Li  Li102  1  0.98337677  0.06175745  0.19934456  1
  Li  Li103  1  0.51662323  0.93824255  0.69934456  1
  Li  Li104  1  0.68824255  0.26662323  0.44934456  1
  Li  Li105  1  0.81175745  0.73337677  0.94934456  1
  Li  Li106  1  0.48337677  0.93824255  0.19934456  1
  Li  Li107  1  0.01662323  0.06175745  0.69934456  1
  Li  Li108  1  0.81175745  0.26662323  0.55065544  1
  Li  Li109  1  0.68824255  0.73337677  0.05065544  1
  Li  Li110  1  0.01662323  0.93824255  0.80065544  1
  Li  Li111  1  0.48337677  0.06175745  0.30065544  1
  Li  Li112  1  0.26142019  0.18627029  0.65821293  1
  Li  Li113  1  0.23857981  0.81372971  0.15821293  1
  Li  Li114  1  0.06372971  0.01142019  0.90821293  1
  Li  Li115  1  0.43627029  0.98857981  0.40821293  1
  Li  Li116  1  0.23857981  0.18627029  0.34178707  1
  Li  Li117  1  0.26142019  0.81372971  0.84178707  1
  Li  Li118  1  0.43627029  0.01142019  0.09178707  1
  Li  Li119  1  0.06372971  0.98857981  0.59178707  1
  Li  Li120  1  0.73857981  0.81372971  0.34178707  1
  Li  Li121  1  0.76142019  0.18627029  0.84178707  1
  Li  Li122  1  0.93627029  0.98857981  0.09178707  1
  Li  Li123  1  0.56372971  0.01142019  0.59178707  1
  Li  Li124  1  0.76142019  0.81372971  0.65821293  1
  Li  Li125  1  0.73857981  0.18627029  0.15821293  1
  Li  Li126  1  0.56372971  0.98857981  0.90821293  1
  Li  Li127  1  0.93627029  0.01142019  0.40821293  1
  Li  Li128  1  0.76142019  0.68627029  0.15821293  1
  Li  Li129  1  0.73857981  0.31372971  0.65821293  1
  Li  Li130  1  0.56372971  0.51142019  0.40821293  1
  Li  Li131  1  0.93627029  0.48857981  0.90821293  1
  Li  Li132  1  0.73857981  0.68627029  0.84178707  1
  Li  Li133  1  0.76142019  0.31372971  0.34178707  1
  Li  Li134  1  0.93627029  0.51142019  0.59178707  1
  Li  Li135  1  0.56372971  0.48857981  0.09178707  1
  Li  Li136  1  0.23857981  0.31372971  0.84178707  1
  Li  Li137  1  0.26142019  0.68627029  0.34178707  1
  Li  Li138  1  0.43627029  0.48857981  0.59178707  1
  Li  Li139  1  0.06372971  0.51142019  0.09178707  1
  Li  Li140  1  0.26142019  0.31372971  0.15821293  1
  Li  Li141  1  0.23857981  0.68627029  0.65821293  1
  Li  Li142  1  0.06372971  0.48857981  0.40821293  1
  Li  Li143  1  0.43627029  0.51142019  0.90821293  1
  Te  Te144  1  0.00000000  0.25000000  0.12500000  1
  Te  Te145  1  0.00000000  0.75000000  0.37500000  1
  Te  Te146  1  0.00000000  0.75000000  0.87500000  1
  Te  Te147  1  0.00000000  0.25000000  0.62500000  1
  Te  Te148  1  0.50000000  0.75000000  0.62500000  1
  Te  Te149  1  0.50000000  0.25000000  0.87500000  1
  Te  Te150  1  0.50000000  0.25000000  0.37500000  1
  Te  Te151  1  0.50000000  0.75000000  0.12500000  1
  Te  Te152  1  0.00000000  0.00000000  0.00000000  1
  Te  Te153  1  0.50000000  0.00000000  0.50000000  1
  Te  Te154  1  0.25000000  0.75000000  0.25000000  1
  Te  Te155  1  0.25000000  0.25000000  0.75000000  1
  Te  Te156  1  0.50000000  0.00000000  -0.00000000  1
  Te  Te157  1  0.00000000  0.00000000  0.50000000  1
  Te  Te158  1  0.25000000  0.75000000  0.75000000  1
  Te  Te159  1  0.25000000  0.25000000  0.25000000  1
  Te  Te160  1  0.50000000  0.50000000  0.50000000  1
  Te  Te161  1  0.00000000  0.50000000  0.00000000  1
  Te  Te162  1  0.75000000  0.25000000  0.75000000  1
  Te  Te163  1  0.75000000  0.75000000  0.25000000  1
  Te  Te164  1  0.00000000  0.50000000  0.50000000  1
  Te  Te165  1  0.50000000  0.50000000  0.00000000  1
  Te  Te166  1  0.75000000  0.25000000  0.25000000  1
  Te  Te167  1  0.75000000  0.75000000  0.75000000  1
