# generated using pymatgen
data_Li3Y2AlP4
_symmetry_space_group_name_H-M   'P 1'
_cell_length_a   5.95576118
_cell_length_b   6.31128795
_cell_length_c   7.57276817
_cell_angle_alpha   92.99440947
_cell_angle_beta   96.52120131
_cell_angle_gamma   102.02735275
_symmetry_Int_Tables_number   1
_chemical_formula_structural   Li3Y2AlP4
_chemical_formula_sum   'Li3 Y2 Al1 P4'
_cell_volume   275.75419160
_cell_formula_units_Z   1
loop_
 _symmetry_equiv_pos_site_id
 _symmetry_equiv_pos_as_xyz
  1  'x, y, z'
loop_
 _atom_site_type_symbol
 _atom_site_label
 _atom_site_symmetry_multiplicity
 _atom_site_fract_x
 _atom_site_fract_y
 _atom_site_fract_z
 _atom_site_occupancy
  Al  Al0  1  0.00000000  0.00000000  0.00000000  1
  P  P1  1  0.33300000  0.66700000  0.25000000  1
  P  P2  1  0.66700000  0.33300000  0.50000000  1
  P  P3  1  0.00000000  0.00000000  0.75000000  1
  P  P4  1  0.22413493  0.11295054  0.54161601  1
  Li  Li5  1  0.51746287  0.42739654  0.39912036  1
  Li  Li6  1  0.34906379  0.17709925  0.91042239  1
  Li  Li7  1  0.80038929  0.99622858  0.66047884  1
  Y  Y8  1  0.32635921  0.99184054  0.70634230  1
  Y  Y9  1  0.98946240  0.76029979  0.37028881  1
