# generated using pymatgen
data_Li4TeF2
_symmetry_space_group_name_H-M   'P 1'
_cell_length_a   15.52255396
_cell_length_b   15.52255396
_cell_length_c   16.71612907
_cell_angle_alpha   90.00000000
_cell_angle_beta   90.00000000
_cell_angle_gamma   120.00000000
_symmetry_Int_Tables_number   1
_chemical_formula_structural   Li4TeF2
_chemical_formula_sum   'Li96 Te24 F48'
_cell_volume   3488.13033545
_cell_formula_units_Z   24
loop_
 _symmetry_equiv_pos_site_id
 _symmetry_equiv_pos_as_xyz
  1  'x, y, z'
loop_
 _atom_site_type_symbol
 _atom_site_label
 _atom_site_symmetry_multiplicity
 _atom_site_fract_x
 _atom_site_fract_y
 _atom_site_fract_z
 _atom_site_occupancy
  F  F0  1  0.82910325  0.36087388  0.54864087  1
  F  F1  1  -0.36087388  0.46822937  0.54864087  1
  F  F2  1  -0.46822937  -0.82910325  0.54864087  1
  F  F3  1  -0.36087388  -0.82910325  -0.54864087  1
  F  F4  1  -0.46822937  0.36087388  -0.54864087  1
  F  F5  1  0.82910325  0.46822937  -0.54864087  1
  F  F6  1  0.75638584  0.20623141  0.36242054  1
  F  F7  1  0.79376859  0.55015443  0.36242054  1
  F  F8  1  0.44984557  0.24361416  0.36242054  1
  F  F9  1  0.79376859  0.24361416  0.63757946  1
  F  F10  1  0.44984557  0.20623141  0.63757946  1
  F  F11  1  0.75638584  0.55015443  0.63757946  1
  F  F12  1  0.66666667  0.33333333  0.78356114  1
  F  F13  1  0.66666667  0.33333333  0.21643886  1
  F  F14  1  0.74189678  0.40175780  0.21527188  1
  F  F15  1  0.59824220  0.34013898  0.21527188  1
  F  F16  1  0.65986102  0.25810322  0.21527188  1
  F  F17  1  0.59824220  0.25810322  0.78472812  1
  F  F18  1  0.65986102  0.40175780  0.78472812  1
  F  F19  1  0.74189678  0.34013898  0.78472812  1
  F  F20  1  0.33333333  0.66666667  0.00000000  1
  F  F21  1  0.89793958  0.03759147  0.94603941  1
  F  F22  1  0.96240853  0.86034812  0.94603941  1
  F  F23  1  0.13965188  0.10206042  0.94603941  1
  F  F24  1  0.96240853  0.10206042  0.05396059  1
  F  F25  1  0.13965188  0.03759147  0.05396059  1
  F  F26  1  0.89793958  0.86034812  0.05396059  1
  F  F27  1  0.20685492  0.70708578  0.76966243  1
  F  F28  1  0.29291422  0.49976915  0.76966243  1
  F  F29  1  0.50023085  0.79314508  0.76966243  1
  F  F30  1  0.29291422  0.79314508  0.23033757  1
  F  F31  1  0.50023085  0.70708578  0.23033757  1
  F  F32  1  0.20685492  0.49976915  0.23033757  1
  F  F33  1  0.00000000  0.00000000  0.00000000  1
  F  F34  1  0.76429817  0.89829109  0.30145274  1
  F  F35  1  0.10170891  0.86600708  0.30145274  1
  F  F36  1  0.13399292  0.23570183  0.30145274  1
  F  F37  1  0.10170891  0.23570183  0.69854726  1
  F  F38  1  0.13399292  0.89829109  0.69854726  1
  F  F39  1  0.76429817  0.86600708  0.69854726  1
  F  F40  1  0.53621102  0.29022209  0.01451183  1
  F  F41  1  0.70977791  0.24598894  0.01451183  1
  F  F42  1  0.75401106  0.46378898  0.01451183  1
  F  F43  1  0.70977791  0.46378898  0.98548817  1
  F  F44  1  0.75401106  0.29022209  0.98548817  1
  F  F45  1  0.53621102  0.24598894  0.98548817  1
  F  F46  1  0.66666667  0.33333333  0.50000000  1
  F  F47  1  0.00000000  0.00000000  0.50000000  1
  Li  Li48  1  0.66666667  0.33333333  0.00000000  1
  Li  Li49  1  0.66499811  0.22247873  0.96064694  1
  Li  Li50  1  0.77752127  0.44251938  0.96064694  1
  Li  Li51  1  0.55748062  0.33500189  0.96064694  1
  Li  Li52  1  0.77752127  0.33500189  0.03935306  1
  Li  Li53  1  0.55748062  0.22247873  0.03935306  1
  Li  Li54  1  0.66499811  0.44251938  0.03935306  1
  Li  Li55  1  0.10803495  0.82754292  0.37894526  1
  Li  Li56  1  0.17245708  0.28049203  0.37894526  1
  Li  Li57  1  0.71950797  0.89196505  0.37894526  1
  Li  Li58  1  0.17245708  0.89196505  0.62105474  1
  Li  Li59  1  0.71950797  0.82754292  0.62105474  1
  Li  Li60  1  0.10803495  0.28049203  0.62105474  1
  Li  Li61  1  0.97858553  0.18578678  0.38969211  1
  Li  Li62  1  0.81421322  0.79279875  0.38969211  1
  Li  Li63  1  0.20720125  0.02141447  0.38969211  1
  Li  Li64  1  0.81421322  0.02141447  0.61030789  1
  Li  Li65  1  0.20720125  0.18578678  0.61030789  1
  Li  Li66  1  0.97858553  0.79279875  0.61030789  1
  Li  Li67  1  0.92793452  0.45188371  0.28499815  1
  Li  Li68  1  0.54811629  0.47605081  0.28499815  1
  Li  Li69  1  0.52394919  0.07206548  0.28499815  1
  Li  Li70  1  0.54811629  0.07206548  0.71500185  1
  Li  Li71  1  0.52394919  0.45188371  0.71500185  1
  Li  Li72  1  0.92793452  0.47605081  0.71500185  1
  Li  Li73  1  0.79224477  0.41032552  0.25152031  1
  Li  Li74  1  0.58967448  0.38191924  0.25152031  1
  Li  Li75  1  0.61808076  0.20775523  0.25152031  1
  Li  Li76  1  0.58967448  0.20775523  0.74847969  1
  Li  Li77  1  0.61808076  0.41032552  0.74847969  1
  Li  Li78  1  0.79224477  0.38191924  0.74847969  1
  Li  Li79  1  0.77375427  0.92573023  0.19426411  1
  Li  Li80  1  0.07426977  0.84802404  0.19426411  1
  Li  Li81  1  0.15197596  0.22624573  0.19426411  1
  Li  Li82  1  0.07426977  0.22624573  0.80573589  1
  Li  Li83  1  0.15197596  0.92573023  0.80573589  1
  Li  Li84  1  0.77375427  0.84802404  0.80573589  1
  Li  Li85  1  0.66666667  0.33333333  0.13133793  1
  Li  Li86  1  0.66666667  0.33333333  0.86866207  1
  Li  Li87  1  0.11093446  0.91738372  0.33889204  1
  Li  Li88  1  0.08261628  0.19355074  0.33889204  1
  Li  Li89  1  0.80644926  0.88906554  0.33889204  1
  Li  Li90  1  0.08261628  0.88906554  0.66110796  1
  Li  Li91  1  0.80644926  0.91738372  0.66110796  1
  Li  Li92  1  0.11093446  0.19355074  0.66110796  1
  Li  Li93  1  0.26163677  0.25188261  0.42688766  1
  Li  Li94  1  0.74811739  0.00975415  0.42688766  1
  Li  Li95  1  0.99024585  0.73836323  0.42688766  1
  Li  Li96  1  0.74811739  0.73836323  0.57311234  1
  Li  Li97  1  0.99024585  0.25188261  0.57311234  1
  Li  Li98  1  0.26163677  0.00975415  0.57311234  1
  Li  Li99  1  0.37608236  0.85231229  0.00576493  1
  Li  Li100  1  0.14768771  0.52377008  0.00576493  1
  Li  Li101  1  0.47622992  0.62391764  0.00576493  1
  Li  Li102  1  0.14768771  0.62391764  0.99423507  1
  Li  Li103  1  0.47622992  0.85231229  0.99423507  1
  Li  Li104  1  0.37608236  0.52377008  0.99423507  1
  Li  Li105  1  0.10157774  0.96723441  0.21005064  1
  Li  Li106  1  0.03276559  0.13434333  0.21005064  1
  Li  Li107  1  0.86565667  0.89842226  0.21005064  1
  Li  Li108  1  0.03276559  0.89842226  0.78994936  1
  Li  Li109  1  0.86565667  0.96723441  0.78994936  1
  Li  Li110  1  0.10157774  0.13434333  0.78994936  1
  Li  Li111  1  0.68641652  0.43705329  0.18695612  1
  Li  Li112  1  0.56294671  0.24936323  0.18695612  1
  Li  Li113  1  0.75063677  0.31358348  0.18695612  1
  Li  Li114  1  0.56294671  0.31358348  0.81304388  1
  Li  Li115  1  0.75063677  0.43705329  0.81304388  1
  Li  Li116  1  0.68641652  0.24936323  0.81304388  1
  Li  Li117  1  0.93114915  0.06885085  0.00000000  1
  Li  Li118  1  0.93114915  0.86229830  0.00000000  1
  Li  Li119  1  0.13770170  0.06885085  0.00000000  1
  Li  Li120  1  0.01060256  0.63437358  0.22873560  1
  Li  Li121  1  0.36562642  0.37622897  0.22873560  1
  Li  Li122  1  0.62377103  0.98939744  0.22873560  1
  Li  Li123  1  0.36562642  0.98939744  0.77126440  1
  Li  Li124  1  0.62377103  0.63437358  0.77126440  1
  Li  Li125  1  0.01060256  0.37622897  0.77126440  1
  Li  Li126  1  0.73358887  0.26641113  0.50000000  1
  Li  Li127  1  0.73358887  0.46717775  0.50000000  1
  Li  Li128  1  0.53282225  0.26641113  0.50000000  1
  Li  Li129  1  0.46283861  0.60639922  0.56099277  1
  Li  Li130  1  0.39360078  0.85643940  0.56099277  1
  Li  Li131  1  0.14356060  0.53716139  0.56099277  1
  Li  Li132  1  0.39360078  0.53716139  0.43900723  1
  Li  Li133  1  0.14356060  0.60639922  0.43900723  1
  Li  Li134  1  0.46283861  0.85643940  0.43900723  1
  Li  Li135  1  0.20054836  0.41737329  0.07505340  1
  Li  Li136  1  0.58262671  0.78317507  0.07505340  1
  Li  Li137  1  0.21682493  0.79945164  0.07505340  1
  Li  Li138  1  0.58262671  0.79945164  0.92494660  1
  Li  Li139  1  0.21682493  0.41737329  0.92494660  1
  Li  Li140  1  0.20054836  0.78317507  0.92494660  1
  Li  Li141  1  0.92082692  0.07917308  0.50000000  1
  Li  Li142  1  0.92082692  0.84165384  0.50000000  1
  Li  Li143  1  0.15834616  0.07917308  0.50000000  1
  Te  Te144  1  0.33333333  0.66666667  0.50000000  1
  Te  Te145  1  0.58541515  0.25369518  0.56593362  1
  Te  Te146  1  0.74630482  0.33171997  0.56593362  1
  Te  Te147  1  0.66828003  0.41458485  0.56593362  1
  Te  Te148  1  0.74630482  0.41458485  0.43406638  1
  Te  Te149  1  0.66828003  0.25369518  0.43406638  1
  Te  Te150  1  0.58541515  0.33171997  0.43406638  1
  Te  Te151  1  0.19192942  0.89909082  0.31955011  1
  Te  Te152  1  0.10090918  0.29283860  0.31955011  1
  Te  Te153  1  0.70716140  0.80807058  0.31955011  1
  Te  Te154  1  0.10090918  0.80807058  0.68044989  1
  Te  Te155  1  0.70716140  0.89909082  0.68044989  1
  Te  Te156  1  0.19192942  0.29283860  0.68044989  1
  Te  Te157  1  0.89410301  0.67025965  0.01120536  1
  Te  Te158  1  0.32974035  0.22384335  0.01120536  1
  Te  Te159  1  0.77615665  0.10589699  0.01120536  1
  Te  Te160  1  0.32974035  0.10589699  0.98879464  1
  Te  Te161  1  0.77615665  0.67025965  0.98879464  1
  Te  Te162  1  0.89410301  0.22384335  0.98879464  1
  Te  Te163  1  0.38826384  0.61173616  0.50000000  1
  Te  Te164  1  0.38826384  0.77652768  0.50000000  1
  Te  Te165  1  0.22347232  0.61173616  0.50000000  1
  Te  Te166  1  0.33333333  0.66666667  0.27821874  1
  Te  Te167  1  0.33333333  0.66666667  0.72178126  1
