# generated using pymatgen
data_LiCaF3
_symmetry_space_group_name_H-M   'P 1'
_cell_length_a   10.20421058
_cell_length_b   10.20421058
_cell_length_c   20.15714426
_cell_angle_alpha   90.00000000
_cell_angle_beta   90.00000000
_cell_angle_gamma   120.00000000
_symmetry_Int_Tables_number   1
_chemical_formula_structural   LiCaF3
_chemical_formula_sum   'Li18 Ca18 F54'
_cell_volume   1817.68431684
_cell_formula_units_Z   18
loop_
 _symmetry_equiv_pos_site_id
 _symmetry_equiv_pos_as_xyz
  1  'x, y, z'
loop_
 _atom_site_type_symbol
 _atom_site_label
 _atom_site_symmetry_multiplicity
 _atom_site_fract_x
 _atom_site_fract_y
 _atom_site_fract_z
 _atom_site_occupancy
  Ca  Ca0  1  0.31320607  0.00000000  0.25000000  1
  Ca  Ca1  1  0.00000000  0.31320607  0.25000000  1
  Ca  Ca2  1  0.68679393  0.68679393  0.25000000  1
  Ca  Ca3  1  0.68679393  -0.00000000  0.75000000  1
  Ca  Ca4  1  0.00000000  0.68679393  0.75000000  1
  Ca  Ca5  1  0.31320607  0.31320607  0.75000000  1
  Ca  Ca6  1  0.97987274  0.33333333  0.58333333  1
  Ca  Ca7  1  0.66666667  0.64653941  0.58333333  1
  Ca  Ca8  1  0.35346059  0.02012726  0.58333333  1
  Ca  Ca9  1  0.35346059  0.33333333  0.08333333  1
  Ca  Ca10  1  0.66666667  0.02012726  0.08333333  1
  Ca  Ca11  1  0.97987274  0.64653941  0.08333333  1
  Ca  Ca12  1  0.64653941  0.66666667  0.91666667  1
  Ca  Ca13  1  0.33333333  0.97987274  0.91666667  1
  Ca  Ca14  1  0.02012726  0.35346059  0.91666667  1
  Ca  Ca15  1  0.02012726  0.66666667  0.41666667  1
  Ca  Ca16  1  0.33333333  0.35346059  0.41666667  1
  Ca  Ca17  1  0.64653941  0.97987274  0.41666667  1
  F  F18  1  0.19092941  0.27381793  0.28001611  1
  F  F19  1  -0.27381793  -0.08288852  0.28001611  1
  F  F20  1  0.08288852  -0.19092941  0.28001611  1
  F  F21  1  0.27381793  0.19092941  0.21998389  1
  F  F22  1  -0.08288852  -0.27381793  0.21998389  1
  F  F23  1  -0.19092941  0.08288852  0.21998389  1
  F  F24  1  -0.19092941  -0.27381793  -0.28001611  1
  F  F25  1  0.27381793  0.08288852  -0.28001611  1
  F  F26  1  -0.08288852  0.19092941  -0.28001611  1
  F  F27  1  -0.27381793  -0.19092941  0.78001611  1
  F  F28  1  0.08288852  0.27381793  0.78001611  1
  F  F29  1  0.19092941  -0.08288852  0.78001611  1
  F  F30  1  0.85759608  0.60715126  0.61334944  1
  F  F31  1  0.39284874  0.25044482  0.61334944  1
  F  F32  1  0.74955518  0.14240392  0.61334944  1
  F  F33  1  0.94048460  0.52426274  0.55331722  1
  F  F34  1  0.58377815  0.05951540  0.55331722  1
  F  F35  1  0.47573726  0.41622185  0.55331722  1
  F  F36  1  0.47573726  0.05951540  0.05331722  1
  F  F37  1  0.94048460  0.41622185  0.05331722  1
  F  F38  1  0.58377815  0.52426274  0.05331722  1
  F  F39  1  0.39284874  0.14240392  1.11334944  1
  F  F40  1  0.74955518  0.60715126  1.11334944  1
  F  F41  1  0.85759608  0.25044482  1.11334944  1
  F  F42  1  0.52426274  0.94048460  0.94668278  1
  F  F43  1  0.05951540  0.58377815  0.94668278  1
  F  F44  1  0.41622185  0.47573726  0.94668278  1
  F  F45  1  0.60715126  0.85759608  0.88665056  1
  F  F46  1  0.25044482  0.39284874  0.88665056  1
  F  F47  1  0.14240392  0.74955518  0.88665056  1
  F  F48  1  0.14240392  0.39284874  0.38665056  1
  F  F49  1  0.60715126  0.74955518  0.38665056  1
  F  F50  1  0.25044482  0.85759608  0.38665056  1
  F  F51  1  0.05951540  0.47573726  1.44668278  1
  F  F52  1  0.41622185  0.94048460  1.44668278  1
  F  F53  1  0.52426274  0.58377815  1.44668278  1
  F  F54  1  0.00000000  0.00000000  0.96286123  1
  F  F55  1  0.00000000  0.00000000  0.53713877  1
  F  F56  1  0.00000000  0.00000000  0.03713877  1
  F  F57  1  0.00000000  0.00000000  0.46286123  1
  F  F58  1  0.66666667  0.33333333  0.29619456  1
  F  F59  1  0.66666667  0.33333333  0.87047210  1
  F  F60  1  0.66666667  0.33333333  0.37047210  1
  F  F61  1  0.66666667  0.33333333  0.79619456  1
  F  F62  1  0.33333333  0.66666667  0.62952790  1
  F  F63  1  0.33333333  0.66666667  0.20380544  1
  F  F64  1  0.33333333  0.66666667  0.70380544  1
  F  F65  1  0.33333333  0.66666667  0.12952790  1
  F  F66  1  0.00000000  0.00000000  0.25000000  1
  F  F67  1  0.00000000  0.00000000  0.75000000  1
  F  F68  1  0.66666667  0.33333333  0.58333333  1
  F  F69  1  0.66666667  0.33333333  0.08333333  1
  F  F70  1  0.33333333  0.66666667  0.91666667  1
  F  F71  1  0.33333333  0.66666667  0.41666667  1
  Li  Li72  1  0.60758582  0.00000000  0.25000000  1
  Li  Li73  1  0.00000000  0.60758582  0.25000000  1
  Li  Li74  1  0.39241418  0.39241418  0.25000000  1
  Li  Li75  1  0.39241418  -0.00000000  0.75000000  1
  Li  Li76  1  0.00000000  0.39241418  0.75000000  1
  Li  Li77  1  0.60758582  0.60758582  0.75000000  1
  Li  Li78  1  0.27425248  0.33333333  0.58333333  1
  Li  Li79  1  0.66666667  0.94091915  0.58333333  1
  Li  Li80  1  0.05908085  0.72574752  0.58333333  1
  Li  Li81  1  0.05908085  0.33333333  0.08333333  1
  Li  Li82  1  0.66666667  0.72574752  0.08333333  1
  Li  Li83  1  0.27425248  0.94091915  0.08333333  1
  Li  Li84  1  0.94091915  0.66666667  0.91666667  1
  Li  Li85  1  0.33333333  0.27425248  0.91666667  1
  Li  Li86  1  0.72574752  0.05908085  0.91666667  1
  Li  Li87  1  0.72574752  0.66666667  0.41666667  1
  Li  Li88  1  0.33333333  0.05908085  0.41666667  1
  Li  Li89  1  0.94091915  0.27425248  0.41666667  1
