# generated using pymatgen
data_LiF
_symmetry_space_group_name_H-M   'P 1'
_cell_length_a   7.72181600
_cell_length_b   7.72181600
_cell_length_c   28.72540976
_cell_angle_alpha   90.00000000
_cell_angle_beta   90.00000000
_cell_angle_gamma   120.00000000
_symmetry_Int_Tables_number   1
_chemical_formula_structural   LiF
_chemical_formula_sum   'Li42 F42'
_cell_volume   1483.32310381
_cell_formula_units_Z   42
loop_
 _symmetry_equiv_pos_site_id
 _symmetry_equiv_pos_as_xyz
  1  'x, y, z'
loop_
 _atom_site_type_symbol
 _atom_site_label
 _atom_site_symmetry_multiplicity
 _atom_site_fract_x
 _atom_site_fract_y
 _atom_site_fract_z
 _atom_site_occupancy
  F  F0  1  0.33333333  0.66666667  0.91859684  1
  F  F1  1  0.66666667  0.33333333  0.41859684  1
  F  F2  1  0.66666667  0.33333333  0.08140316  1
  F  F3  1  0.33333333  0.66666667  0.58140316  1
  F  F4  1  0.46588107  0.53956510  0.10663997  1
  F  F5  1  0.46043490  0.92631597  0.10663997  1
  F  F6  1  0.07368403  0.53411893  0.10663997  1
  F  F7  1  0.53411893  0.46043490  0.60663997  1
  F  F8  1  0.53956510  0.07368403  0.60663997  1
  F  F9  1  0.92631597  0.46588107  0.60663997  1
  F  F10  1  0.53411893  0.46043490  0.89336003  1
  F  F11  1  0.53956510  0.07368403  0.89336003  1
  F  F12  1  0.92631597  0.46588107  0.89336003  1
  F  F13  1  0.46588107  0.53956510  0.39336003  1
  F  F14  1  0.46043490  0.92631597  0.39336003  1
  F  F15  1  0.07368403  0.53411893  0.39336003  1
  F  F16  1  0.53488693  0.73644683  0.00898882  1
  F  F17  1  0.26355317  0.79844011  0.00898882  1
  F  F18  1  0.20155989  0.46511307  0.00898882  1
  F  F19  1  0.46511307  0.26355317  0.50898882  1
  F  F20  1  0.73644683  0.20155989  0.50898882  1
  F  F21  1  0.79844011  0.53488693  0.50898882  1
  F  F22  1  0.46511307  0.26355317  0.99101118  1
  F  F23  1  0.73644683  0.20155989  0.99101118  1
  F  F24  1  0.79844011  0.53488693  0.99101118  1
  F  F25  1  0.53488693  0.73644683  0.49101118  1
  F  F26  1  0.26355317  0.79844011  0.49101118  1
  F  F27  1  0.20155989  0.46511307  0.49101118  1
  F  F28  1  0.12002851  0.70237236  0.42618216  1
  F  F29  1  0.29762764  0.41765615  0.42618216  1
  F  F30  1  0.58234385  0.87997149  0.42618216  1
  F  F31  1  0.87997149  0.29762764  0.92618216  1
  F  F32  1  0.70237236  0.58234385  0.92618216  1
  F  F33  1  0.41765615  0.12002851  0.92618216  1
  F  F34  1  0.87997149  0.29762764  0.57381784  1
  F  F35  1  0.70237236  0.58234385  0.57381784  1
  F  F36  1  0.41765615  0.12002851  0.57381784  1
  F  F37  1  0.12002851  0.70237236  0.07381784  1
  F  F38  1  0.29762764  0.41765615  0.07381784  1
  F  F39  1  0.58234385  0.87997149  0.07381784  1
  F  F40  1  0.00000000  0.00000000  0.00000000  1
  F  F41  1  0.00000000  0.00000000  0.50000000  1
  Li  Li42  1  0.33333333  0.66666667  0.42139387  1
  Li  Li43  1  0.66666667  0.33333333  0.92139387  1
  Li  Li44  1  0.66666667  0.33333333  0.57860613  1
  Li  Li45  1  0.33333333  0.66666667  0.07860613  1
  Li  Li46  1  0.81723511  0.69714171  0.48452712  1
  Li  Li47  1  -0.69714171  0.12009340  0.48452712  1
  Li  Li48  1  -0.12009340  -0.81723511  0.48452712  1
  Li  Li49  1  -0.81723511  -0.69714171  0.98452712  1
  Li  Li50  1  0.69714171  -0.12009340  0.98452712  1
  Li  Li51  1  0.12009340  0.81723511  0.98452712  1
  Li  Li52  1  -0.81723511  -0.69714171  -0.48452712  1
  Li  Li53  1  0.69714171  -0.12009340  -0.48452712  1
  Li  Li54  1  0.12009340  0.81723511  -0.48452712  1
  Li  Li55  1  0.81723511  0.69714171  0.01547288  1
  Li  Li56  1  -0.69714171  0.12009340  0.01547288  1
  Li  Li57  1  -0.12009340  -0.81723511  0.01547288  1
  Li  Li58  1  0.33333333  0.66666667  0.00344789  1
  Li  Li59  1  0.66666667  0.33333333  0.50344789  1
  Li  Li60  1  0.66666667  0.33333333  0.99655211  1
  Li  Li61  1  0.33333333  0.66666667  0.49655211  1
  Li  Li62  1  0.33333333  0.66666667  0.25000000  1
  Li  Li63  1  0.66666667  0.33333333  0.75000000  1
  Li  Li64  1  0.40441977  0.29207112  0.90646253  1
  Li  Li65  1  0.70792888  0.11234865  0.90646253  1
  Li  Li66  1  0.88765135  0.59558023  0.90646253  1
  Li  Li67  1  0.59558023  0.70792888  0.40646253  1
  Li  Li68  1  0.29207112  0.88765135  0.40646253  1
  Li  Li69  1  0.11234865  0.40441977  0.40646253  1
  Li  Li70  1  0.59558023  0.70792888  0.09353747  1
  Li  Li71  1  0.29207112  0.88765135  0.09353747  1
  Li  Li72  1  0.11234865  0.40441977  0.09353747  1
  Li  Li73  1  0.40441977  0.29207112  0.59353747  1
  Li  Li74  1  0.70792888  0.11234865  0.59353747  1
  Li  Li75  1  0.88765135  0.59558023  0.59353747  1
  Li  Li76  1  0.50000000  0.00000000  0.00000000  1
  Li  Li77  1  0.00000000  0.50000000  0.00000000  1
  Li  Li78  1  0.50000000  0.50000000  0.00000000  1
  Li  Li79  1  0.50000000  0.00000000  0.50000000  1
  Li  Li80  1  0.00000000  0.50000000  0.50000000  1
  Li  Li81  1  0.50000000  0.50000000  0.50000000  1
  Li  Li82  1  0.66666667  0.33333333  0.25000000  1
  Li  Li83  1  0.33333333  0.66666667  0.75000000  1
