# generated using pymatgen
data_LiF
_symmetry_space_group_name_H-M   'P 1'
_cell_length_a   9.46770920
_cell_length_b   9.46770920
_cell_length_c   7.16356197
_cell_angle_alpha   90.00000000
_cell_angle_beta   90.00000000
_cell_angle_gamma   120.00000000
_symmetry_Int_Tables_number   1
_chemical_formula_structural   LiF
_chemical_formula_sum   'Li24 F24'
_cell_volume   556.09561975
_cell_formula_units_Z   24
loop_
 _symmetry_equiv_pos_site_id
 _symmetry_equiv_pos_as_xyz
  1  'x, y, z'
loop_
 _atom_site_type_symbol
 _atom_site_label
 _atom_site_symmetry_multiplicity
 _atom_site_fract_x
 _atom_site_fract_y
 _atom_site_fract_z
 _atom_site_occupancy
  F  F0  1  0.81869238  0.02420618  0.25000000  1
  F  F1  1  0.97579382  0.79448620  0.25000000  1
  F  F2  1  0.20551380  0.18130762  0.25000000  1
  F  F3  1  0.18130762  0.97579382  0.75000000  1
  F  F4  1  0.02420618  0.20551380  0.75000000  1
  F  F5  1  0.79448620  0.81869238  0.75000000  1
  F  F6  1  0.33333333  0.66666667  0.09892953  1
  F  F7  1  0.66666667  0.33333333  0.59892953  1
  F  F8  1  0.66666667  0.33333333  0.90107047  1
  F  F9  1  0.33333333  0.66666667  0.40107047  1
  F  F10  1  0.40154122  0.54427717  0.91125876  1
  F  F11  1  0.45572283  0.85726405  0.91125876  1
  F  F12  1  0.14273595  0.59845878  0.91125876  1
  F  F13  1  0.59845878  0.45572283  0.41125876  1
  F  F14  1  0.54427717  0.14273595  0.41125876  1
  F  F15  1  0.85726405  0.40154122  0.41125876  1
  F  F16  1  0.59845878  0.45572283  0.08874124  1
  F  F17  1  0.54427717  0.14273595  0.08874124  1
  F  F18  1  0.85726405  0.40154122  0.08874124  1
  F  F19  1  0.40154122  0.54427717  0.58874124  1
  F  F20  1  0.45572283  0.85726405  0.58874124  1
  F  F21  1  0.14273595  0.59845878  0.58874124  1
  F  F22  1  0.00000000  0.00000000  0.00000000  1
  F  F23  1  0.00000000  0.00000000  0.50000000  1
  Li  Li24  1  0.89990180  0.22762005  0.02315863  1
  Li  Li25  1  -0.22762005  0.67228175  0.02315863  1
  Li  Li26  1  -0.67228175  -0.89990180  0.02315863  1
  Li  Li27  1  -0.89990180  -0.22762005  0.52315863  1
  Li  Li28  1  0.22762005  -0.67228175  0.52315863  1
  Li  Li29  1  0.67228175  0.89990180  0.52315863  1
  Li  Li30  1  -0.89990180  -0.22762005  -0.02315863  1
  Li  Li31  1  0.22762005  -0.67228175  -0.02315863  1
  Li  Li32  1  0.67228175  0.89990180  -0.02315863  1
  Li  Li33  1  0.89990180  0.22762005  0.47684137  1
  Li  Li34  1  -0.22762005  0.67228175  0.47684137  1
  Li  Li35  1  -0.67228175  -0.89990180  0.47684137  1
  Li  Li36  1  0.44552901  0.86601045  0.37286287  1
  Li  Li37  1  0.13398955  0.57951856  0.37286287  1
  Li  Li38  1  0.42048144  0.55447099  0.37286287  1
  Li  Li39  1  0.55447099  0.13398955  0.87286287  1
  Li  Li40  1  0.86601045  0.42048144  0.87286287  1
  Li  Li41  1  0.57951856  0.44552901  0.87286287  1
  Li  Li42  1  0.55447099  0.13398955  0.62713713  1
  Li  Li43  1  0.86601045  0.42048144  0.62713713  1
  Li  Li44  1  0.57951856  0.44552901  0.62713713  1
  Li  Li45  1  0.44552901  0.86601045  0.12713713  1
  Li  Li46  1  0.13398955  0.57951856  0.12713713  1
  Li  Li47  1  0.42048144  0.55447099  0.12713713  1
