# generated using pymatgen
data_Li3Hf3B(SeF)6
_symmetry_space_group_name_H-M   'P 1'
_cell_length_a   14.41175988
_cell_length_b   21.12461766
_cell_length_c   17.61257097
_cell_angle_alpha   90.00000000
_cell_angle_beta   90.00000000
_cell_angle_gamma   90.00000000
_symmetry_Int_Tables_number   1
_chemical_formula_structural   Li3Hf3B(SeF)6
_chemical_formula_sum   'Li48 Hf48 B16 Se96 F96'
_cell_volume   5362.02248654
_cell_formula_units_Z   16
loop_
 _symmetry_equiv_pos_site_id
 _symmetry_equiv_pos_as_xyz
  1  'x, y, z'
loop_
 _atom_site_type_symbol
 _atom_site_label
 _atom_site_symmetry_multiplicity
 _atom_site_fract_x
 _atom_site_fract_y
 _atom_site_fract_z
 _atom_site_occupancy
  B  B0  1  0.02408145  0.14096402  0.82758923  1
  B  B1  1  0.47591855  0.85903598  0.32758923  1
  B  B2  1  0.97591855  0.64096402  0.17241077  1
  B  B3  1  0.52408145  0.35903598  0.67241077  1
  B  B4  1  0.97591855  0.85903598  0.17241077  1
  B  B5  1  0.52408145  0.14096402  0.67241077  1
  B  B6  1  0.02408145  0.35903598  0.82758923  1
  B  B7  1  0.47591855  0.64096402  0.32758923  1
  B  B8  1  0.90590331  0.48653416  0.10679241  1
  B  B9  1  0.59409669  0.51346584  0.60679241  1
  B  B10  1  0.09409669  0.98653416  0.89320759  1
  B  B11  1  0.40590331  0.01346584  0.39320759  1
  B  B12  1  0.09409669  0.51346584  0.89320759  1
  B  B13  1  0.40590331  0.48653416  0.39320759  1
  B  B14  1  0.90590331  0.01346584  0.10679241  1
  B  B15  1  0.59409669  0.98653416  0.60679241  1
  F  F16  1  0.48503671  0.02020874  0.05732761  1
  F  F17  1  0.01496329  -0.02020874  0.55732761  1
  F  F18  1  -0.48503671  0.52020874  -0.05732761  1
  F  F19  1  0.98503671  0.47979126  0.44267239  1
  F  F20  1  -0.48503671  -0.02020874  -0.05732761  1
  F  F21  1  0.98503671  0.02020874  0.44267239  1
  F  F22  1  0.48503671  0.47979126  0.05732761  1
  F  F23  1  0.01496329  0.52020874  0.55732761  1
  F  F24  1  0.25684363  0.83962823  0.21884513  1
  F  F25  1  0.24315637  0.16037177  0.71884513  1
  F  F26  1  0.74315637  0.33962823  0.78115487  1
  F  F27  1  0.75684363  0.66037177  0.28115487  1
  F  F28  1  0.74315637  0.16037177  0.78115487  1
  F  F29  1  0.75684363  0.83962823  0.28115487  1
  F  F30  1  0.25684363  0.66037177  0.21884513  1
  F  F31  1  0.24315637  0.33962823  0.71884513  1
  F  F32  1  0.30985243  0.50868202  0.31663793  1
  F  F33  1  0.19014757  0.49131798  0.81663793  1
  F  F34  1  0.69014757  0.00868202  0.68336207  1
  F  F35  1  0.80985243  0.99131798  0.18336207  1
  F  F36  1  0.69014757  0.49131798  0.68336207  1
  F  F37  1  0.80985243  0.50868202  0.18336207  1
  F  F38  1  0.30985243  0.99131798  0.31663793  1
  F  F39  1  0.19014757  0.00868202  0.81663793  1
  F  F40  1  0.00195514  0.04207285  0.92857132  1
  F  F41  1  0.49804486  0.95792715  0.42857132  1
  F  F42  1  0.99804486  0.54207285  0.07142868  1
  F  F43  1  0.50195514  0.45792715  0.57142868  1
  F  F44  1  0.99804486  0.95792715  0.07142868  1
  F  F45  1  0.50195514  0.04207285  0.57142868  1
  F  F46  1  0.00195514  0.45792715  0.92857132  1
  F  F47  1  0.49804486  0.54207285  0.42857132  1
  F  F48  1  0.31597367  0.09816070  0.38600464  1
  F  F49  1  0.18402633  0.90183930  0.88600464  1
  F  F50  1  0.68402633  0.59816070  0.61399536  1
  F  F51  1  0.81597367  0.40183930  0.11399536  1
  F  F52  1  0.68402633  0.90183930  0.61399536  1
  F  F53  1  0.81597367  0.09816070  0.11399536  1
  F  F54  1  0.31597367  0.40183930  0.38600464  1
  F  F55  1  0.18402633  0.59816070  0.88600464  1
  F  F56  1  0.96545862  0.55221406  0.61036270  1
  F  F57  1  0.53454138  0.44778594  0.11036270  1
  F  F58  1  0.03454138  0.05221406  0.38963730  1
  F  F59  1  0.46545862  0.94778594  0.88963730  1
  F  F60  1  0.03454138  0.44778594  0.38963730  1
  F  F61  1  0.46545862  0.55221406  0.88963730  1
  F  F62  1  0.96545862  0.94778594  0.61036270  1
  F  F63  1  0.53454138  0.05221406  0.11036270  1
  F  F64  1  0.43946661  0.25000000  0.30140856  1
  F  F65  1  0.06053339  0.75000000  0.80140856  1
  F  F66  1  0.56053339  0.75000000  0.69859144  1
  F  F67  1  0.93946661  0.25000000  0.19859144  1
  F  F68  1  0.31987871  0.22959807  0.11176902  1
  F  F69  1  0.18012129  0.77040193  0.61176902  1
  F  F70  1  0.68012129  0.72959807  0.88823098  1
  F  F71  1  0.81987871  0.27040193  0.38823098  1
  F  F72  1  0.68012129  0.77040193  0.88823098  1
  F  F73  1  0.81987871  0.22959807  0.38823098  1
  F  F74  1  0.31987871  0.27040193  0.11176902  1
  F  F75  1  0.18012129  0.72959807  0.61176902  1
  F  F76  1  0.87437693  0.99942970  0.61322325  1
  F  F77  1  0.62562307  0.00057030  0.11322325  1
  F  F78  1  0.12562307  0.49942970  0.38677675  1
  F  F79  1  0.37437693  0.50057030  0.88677675  1
  F  F80  1  0.12562307  0.00057030  0.38677675  1
  F  F81  1  0.37437693  0.99942970  0.88677675  1
  F  F82  1  0.87437693  0.50057030  0.61322325  1
  F  F83  1  0.62562307  0.49942970  0.11322325  1
  F  F84  1  0.82236355  0.53943859  0.13806018  1
  F  F85  1  0.67763645  0.46056141  0.63806018  1
  F  F86  1  0.17763645  0.03943859  0.86193982  1
  F  F87  1  0.32236355  0.96056141  0.36193982  1
  F  F88  1  0.17763645  0.46056141  0.86193982  1
  F  F89  1  0.32236355  0.53943859  0.36193982  1
  F  F90  1  0.82236355  0.96056141  0.13806018  1
  F  F91  1  0.67763645  0.03943859  0.63806018  1
  F  F92  1  0.84193544  0.16565080  0.94227342  1
  F  F93  1  0.65806456  0.83434920  0.44227342  1
  F  F94  1  0.15806456  0.66565080  0.05772658  1
  F  F95  1  0.34193544  0.33434920  0.55772658  1
  F  F96  1  0.15806456  0.83434920  0.05772658  1
  F  F97  1  0.34193544  0.16565080  0.55772658  1
  F  F98  1  0.84193544  0.33434920  0.94227342  1
  F  F99  1  0.65806456  0.66565080  0.44227342  1
  F  F100  1  0.00000000  0.00000000  0.00000000  1
  F  F101  1  0.50000000  0.00000000  0.50000000  1
  F  F102  1  0.00000000  0.50000000  0.00000000  1
  F  F103  1  0.50000000  0.50000000  0.50000000  1
  F  F104  1  0.84337055  0.25000000  0.90272777  1
  F  F105  1  0.65662945  0.75000000  0.40272777  1
  F  F106  1  0.15662945  0.75000000  0.09727223  1
  F  F107  1  0.34337055  0.25000000  0.59727223  1
  F  F108  1  0.00000000  0.00000000  0.50000000  1
  F  F109  1  0.50000000  0.00000000  -0.00000000  1
  F  F110  1  0.00000000  0.50000000  0.50000000  1
  F  F111  1  0.50000000  0.50000000  0.00000000  1
  Hf  Hf112  1  0.14658213  0.25000000  0.55672474  1
  Hf  Hf113  1  0.35341787  0.75000000  0.05672474  1
  Hf  Hf114  1  0.85341787  0.75000000  0.44327526  1
  Hf  Hf115  1  0.64658213  0.25000000  0.94327526  1
  Hf  Hf116  1  0.09997944  0.34479740  0.67334537  1
  Hf  Hf117  1  0.40002056  0.65520260  0.17334537  1
  Hf  Hf118  1  0.90002056  0.84479740  0.32665463  1
  Hf  Hf119  1  0.59997944  0.15520260  0.82665463  1
  Hf  Hf120  1  0.90002056  0.65520260  0.32665463  1
  Hf  Hf121  1  0.59997944  0.34479740  0.82665463  1
  Hf  Hf122  1  0.09997944  0.15520260  0.67334537  1
  Hf  Hf123  1  0.40002056  0.84479740  0.17334537  1
  Hf  Hf124  1  0.21012340  0.46342385  0.94905743  1
  Hf  Hf125  1  0.28987660  0.53657615  0.44905743  1
  Hf  Hf126  1  0.78987660  0.96342385  0.05094257  1
  Hf  Hf127  1  0.71012340  0.03657615  0.55094257  1
  Hf  Hf128  1  0.78987660  0.53657615  0.05094257  1
  Hf  Hf129  1  0.71012340  0.46342385  0.55094257  1
  Hf  Hf130  1  0.21012340  0.03657615  0.94905743  1
  Hf  Hf131  1  0.28987660  0.96342385  0.44905743  1
  Hf  Hf132  1  0.35360180  0.96861285  0.97987269  1
  Hf  Hf133  1  0.14639820  0.03138715  0.47987269  1
  Hf  Hf134  1  0.64639820  0.46861285  0.02012731  1
  Hf  Hf135  1  0.85360180  0.53138715  0.52012731  1
  Hf  Hf136  1  0.64639820  0.03138715  0.02012731  1
  Hf  Hf137  1  0.85360180  0.96861285  0.52012731  1
  Hf  Hf138  1  0.35360180  0.53138715  0.97987269  1
  Hf  Hf139  1  0.14639820  0.46861285  0.47987269  1
  Hf  Hf140  1  0.70208849  0.35805054  0.23620747  1
  Hf  Hf141  1  0.79791151  0.64194946  0.73620747  1
  Hf  Hf142  1  0.29791151  0.85805054  0.76379253  1
  Hf  Hf143  1  0.20208849  0.14194946  0.26379253  1
  Hf  Hf144  1  0.29791151  0.64194946  0.76379253  1
  Hf  Hf145  1  0.20208849  0.35805054  0.26379253  1
  Hf  Hf146  1  0.70208849  0.14194946  0.23620747  1
  Hf  Hf147  1  0.79791151  0.85805054  0.73620747  1
  Hf  Hf148  1  0.79846186  0.25000000  0.08956555  1
  Hf  Hf149  1  0.70153814  0.75000000  0.58956555  1
  Hf  Hf150  1  0.20153814  0.75000000  0.91043445  1
  Hf  Hf151  1  0.29846186  0.25000000  0.41043445  1
  Hf  Hf152  1  0.54736767  0.14042959  0.11450052  1
  Hf  Hf153  1  0.95263233  0.85957041  0.61450052  1
  Hf  Hf154  1  0.45263233  0.64042959  0.88549948  1
  Hf  Hf155  1  0.04736767  0.35957041  0.38549948  1
  Hf  Hf156  1  0.45263233  0.85957041  0.88549948  1
  Hf  Hf157  1  0.04736767  0.14042959  0.38549948  1
  Hf  Hf158  1  0.54736767  0.35957041  0.11450052  1
  Hf  Hf159  1  0.95263233  0.64042959  0.61450052  1
  Li  Li160  1  0.95863134  0.45513544  0.52203437  1
  Li  Li161  1  0.54136866  0.54486456  0.02203437  1
  Li  Li162  1  0.04136866  0.95513544  0.47796563  1
  Li  Li163  1  0.45863134  0.04486456  0.97796563  1
  Li  Li164  1  0.04136866  0.54486456  0.47796563  1
  Li  Li165  1  0.45863134  0.45513544  0.97796563  1
  Li  Li166  1  0.95863134  0.04486456  0.52203437  1
  Li  Li167  1  0.54136866  0.95513544  0.02203437  1
  Li  Li168  1  0.25105673  0.15922786  0.66462548  1
  Li  Li169  1  0.24894327  0.84077214  0.16462548  1
  Li  Li170  1  0.74894327  0.65922786  0.33537452  1
  Li  Li171  1  0.75105673  0.34077214  0.83537452  1
  Li  Li172  1  0.74894327  0.84077214  0.33537452  1
  Li  Li173  1  0.75105673  0.15922786  0.83537452  1
  Li  Li174  1  0.25105673  0.34077214  0.66462548  1
  Li  Li175  1  0.24894327  0.65922786  0.16462548  1
  Li  Li176  1  0.02004344  0.19931803  0.22022745  1
  Li  Li177  1  0.47995656  0.80068197  0.72022745  1
  Li  Li178  1  0.97995656  0.69931803  0.77977255  1
  Li  Li179  1  0.52004344  0.30068197  0.27977255  1
  Li  Li180  1  0.97995656  0.80068197  0.77977255  1
  Li  Li181  1  0.52004344  0.19931803  0.27977255  1
  Li  Li182  1  0.02004344  0.30068197  0.22022745  1
  Li  Li183  1  0.47995656  0.69931803  0.72022745  1
  Li  Li184  1  0.50347728  0.01063716  0.19348941  1
  Li  Li185  1  0.99652272  0.98936284  0.69348941  1
  Li  Li186  1  0.49652272  0.51063716  0.80651059  1
  Li  Li187  1  0.00347728  0.48936284  0.30651059  1
  Li  Li188  1  0.49652272  0.98936284  0.80651059  1
  Li  Li189  1  0.00347728  0.01063716  0.30651059  1
  Li  Li190  1  0.50347728  0.48936284  0.19348941  1
  Li  Li191  1  0.99652272  0.51063716  0.69348941  1
  Li  Li192  1  0.93050613  0.08744598  0.78257975  1
  Li  Li193  1  0.56949387  0.91255402  0.28257975  1
  Li  Li194  1  0.06949387  0.58744598  0.21742025  1
  Li  Li195  1  0.43050613  0.41255402  0.71742025  1
  Li  Li196  1  0.06949387  0.91255402  0.21742025  1
  Li  Li197  1  0.43050613  0.08744598  0.71742025  1
  Li  Li198  1  0.93050613  0.41255402  0.78257975  1
  Li  Li199  1  0.56949387  0.58744598  0.28257975  1
  Li  Li200  1  0.17111938  0.70358173  0.12722339  1
  Li  Li201  1  0.32888062  0.29641827  0.62722339  1
  Li  Li202  1  0.82888062  0.20358173  0.87277661  1
  Li  Li203  1  0.67111938  0.79641827  0.37277661  1
  Li  Li204  1  0.82888062  0.29641827  0.87277661  1
  Li  Li205  1  0.67111938  0.70358173  0.37277661  1
  Li  Li206  1  0.17111938  0.79641827  0.12722339  1
  Li  Li207  1  0.32888062  0.20358173  0.62722339  1
  Se  Se208  1  0.65796590  0.08924170  0.72061703  1
  Se  Se209  1  0.84203410  0.91075830  0.22061703  1
  Se  Se210  1  0.34203410  0.58924170  0.27938297  1
  Se  Se211  1  0.15796590  0.41075830  0.77938297  1
  Se  Se212  1  0.34203410  0.91075830  0.27938297  1
  Se  Se213  1  0.15796590  0.08924170  0.77938297  1
  Se  Se214  1  0.65796590  0.41075830  0.72061703  1
  Se  Se215  1  0.84203410  0.58924170  0.22061703  1
  Se  Se216  1  0.53866380  0.25000000  0.63352721  1
  Se  Se217  1  0.96133620  0.75000000  0.13352721  1
  Se  Se218  1  0.46133620  0.75000000  0.36647279  1
  Se  Se219  1  0.03866380  0.25000000  0.86647279  1
  Se  Se220  1  0.08669612  0.31147900  0.03551523  1
  Se  Se221  1  0.41330388  0.68852100  0.53551523  1
  Se  Se222  1  0.91330388  0.81147900  0.96448477  1
  Se  Se223  1  0.58669612  0.18852100  0.46448477  1
  Se  Se224  1  0.91330388  0.68852100  0.96448477  1
  Se  Se225  1  0.58669612  0.31147900  0.46448477  1
  Se  Se226  1  0.08669612  0.18852100  0.03551523  1
  Se  Se227  1  0.41330388  0.81147900  0.53551523  1
  Se  Se228  1  0.83237480  0.97280409  0.85480927  1
  Se  Se229  1  0.66762520  0.02719591  0.35480927  1
  Se  Se230  1  0.16762520  0.47280409  0.14519073  1
  Se  Se231  1  0.33237480  0.52719591  0.64519073  1
  Se  Se232  1  0.16762520  0.02719591  0.14519073  1
  Se  Se233  1  0.33237480  0.97280409  0.64519073  1
  Se  Se234  1  0.83237480  0.52719591  0.85480927  1
  Se  Se235  1  0.66762520  0.47280409  0.35480927  1
  Se  Se236  1  0.57473951  0.25000000  0.19182174  1
  Se  Se237  1  0.92526049  0.75000000  0.69182174  1
  Se  Se238  1  0.42526049  0.75000000  0.80817826  1
  Se  Se239  1  0.07473951  0.25000000  0.30817826  1
  Se  Se240  1  0.11978586  0.05276015  0.68682445  1
  Se  Se241  1  0.38021414  0.94723985  0.18682445  1
  Se  Se242  1  0.88021414  0.55276015  0.31317555  1
  Se  Se243  1  0.61978586  0.44723985  0.81317555  1
  Se  Se244  1  0.88021414  0.94723985  0.31317555  1
  Se  Se245  1  0.61978586  0.05276015  0.81317555  1
  Se  Se246  1  0.11978586  0.44723985  0.68682445  1
  Se  Se247  1  0.38021414  0.55276015  0.18682445  1
  Se  Se248  1  0.60047834  0.71123046  0.96171250  1
  Se  Se249  1  0.89952166  0.28876954  0.46171250  1
  Se  Se250  1  0.39952166  0.21123046  0.03828750  1
  Se  Se251  1  0.10047834  0.78876954  0.53828750  1
  Se  Se252  1  0.39952166  0.28876954  0.03828750  1
  Se  Se253  1  0.10047834  0.71123046  0.53828750  1
  Se  Se254  1  0.60047834  0.78876954  0.96171250  1
  Se  Se255  1  0.89952166  0.21123046  0.46171250  1
  Se  Se256  1  0.66374123  0.25000000  0.03554923  1
  Se  Se257  1  0.83625877  0.75000000  0.53554923  1
  Se  Se258  1  0.33625877  0.75000000  0.96445077  1
  Se  Se259  1  0.16374123  0.25000000  0.46445077  1
  Se  Se260  1  0.93856805  0.33681998  0.95181186  1
  Se  Se261  1  0.56143195  0.66318002  0.45181186  1
  Se  Se262  1  0.06143195  0.83681998  0.04818814  1
  Se  Se263  1  0.43856805  0.16318002  0.54818814  1
  Se  Se264  1  0.06143195  0.66318002  0.04818814  1
  Se  Se265  1  0.43856805  0.33681998  0.54818814  1
  Se  Se266  1  0.93856805  0.16318002  0.95181186  1
  Se  Se267  1  0.56143195  0.83681998  0.45181186  1
  Se  Se268  1  0.40542055  0.25000000  0.80058695  1
  Se  Se269  1  0.09457945  0.75000000  0.30058695  1
  Se  Se270  1  0.59457945  0.75000000  0.19941305  1
  Se  Se271  1  0.90542055  0.25000000  0.69941305  1
  Se  Se272  1  0.03412783  0.47235952  0.18582413  1
  Se  Se273  1  0.46587217  0.52764048  0.68582413  1
  Se  Se274  1  0.96587217  0.97235952  0.81417587  1
  Se  Se275  1  0.53412783  0.02764048  0.31417587  1
  Se  Se276  1  0.96587217  0.52764048  0.81417587  1
  Se  Se277  1  0.53412783  0.47235952  0.31417587  1
  Se  Se278  1  0.03412783  0.02764048  0.18582413  1
  Se  Se279  1  0.46587217  0.97235952  0.68582413  1
  Se  Se280  1  0.87943779  0.35991440  0.34937062  1
  Se  Se281  1  0.62056221  0.64008560  0.84937062  1
  Se  Se282  1  0.12056221  0.85991440  0.65062938  1
  Se  Se283  1  0.37943779  0.14008560  0.15062938  1
  Se  Se284  1  0.12056221  0.64008560  0.65062938  1
  Se  Se285  1  0.37943779  0.35991440  0.15062938  1
  Se  Se286  1  0.87943779  0.14008560  0.34937062  1
  Se  Se287  1  0.62056221  0.85991440  0.84937062  1
  Se  Se288  1  0.25127205  0.45531730  0.62115057  1
  Se  Se289  1  0.24872795  0.54468270  0.12115057  1
  Se  Se290  1  0.74872795  0.95531730  0.37884943  1
  Se  Se291  1  0.75127205  0.04468270  0.87884943  1
  Se  Se292  1  0.74872795  0.54468270  0.37884943  1
  Se  Se293  1  0.75127205  0.45531730  0.87884943  1
  Se  Se294  1  0.25127205  0.04468270  0.62115057  1
  Se  Se295  1  0.24872795  0.95531730  0.12115057  1
  Se  Se296  1  0.04357964  0.41833546  0.47253260  1
  Se  Se297  1  0.45642036  0.58166454  0.97253260  1
  Se  Se298  1  0.95642036  0.91833546  0.52746740  1
  Se  Se299  1  0.54357964  0.08166454  0.02746740  1
  Se  Se300  1  0.95642036  0.58166454  0.52746740  1
  Se  Se301  1  0.54357964  0.41833546  0.02746740  1
  Se  Se302  1  0.04357964  0.08166454  0.47253260  1
  Se  Se303  1  0.45642036  0.91833546  0.97253260  1
