# generated using pymatgen
data_LiY2Cu3P2
_symmetry_space_group_name_H-M   'P 1'
_cell_length_a   3.84784378
_cell_length_b   4.06947759
_cell_length_c   6.58451566
_cell_angle_alpha   96.70101978
_cell_angle_beta   104.28168724
_cell_angle_gamma   116.42644122
_symmetry_Int_Tables_number   1
_chemical_formula_structural   LiY2Cu3P2
_chemical_formula_sum   'Li1 Y2 Cu3 P2'
_cell_volume   86.37704463
_cell_formula_units_Z   1
loop_
 _symmetry_equiv_pos_site_id
 _symmetry_equiv_pos_as_xyz
  1  'x, y, z'
loop_
 _atom_site_type_symbol
 _atom_site_label
 _atom_site_symmetry_multiplicity
 _atom_site_fract_x
 _atom_site_fract_y
 _atom_site_fract_z
 _atom_site_occupancy
  P  P0  1  0.00000000  0.00000000  0.00000000  1
  P  P1  1  0.33300000  0.66700000  0.25000000  1
  Li  Li2  1  0.66700000  0.33300000  0.50000000  1
  Y  Y3  1  0.00000000  0.00000000  0.75000000  1
  Y  Y4  1  0.50600657  0.37280891  0.67651489  1
  Cu  Cu5  1  0.22409550  0.91354374  0.81189302  1
  Cu  Cu6  1  0.94939062  0.44037064  0.65952976  1
  Cu  Cu7  1  0.43729548  0.68943194  0.99353205  1
