# generated using pymatgen
data_LiY2Te4P3
_symmetry_space_group_name_H-M   'P 1'
_cell_length_a   5.23099728
_cell_length_b   5.34738686
_cell_length_c   7.31840442
_cell_angle_alpha   94.50205352
_cell_angle_beta   99.80453661
_cell_angle_gamma   108.08295968
_symmetry_Int_Tables_number   1
_chemical_formula_structural   LiY2Te4P3
_chemical_formula_sum   'Li1 Y2 Te4 P3'
_cell_volume   189.86366794
_cell_formula_units_Z   1
loop_
 _symmetry_equiv_pos_site_id
 _symmetry_equiv_pos_as_xyz
  1  'x, y, z'
loop_
 _atom_site_type_symbol
 _atom_site_label
 _atom_site_symmetry_multiplicity
 _atom_site_fract_x
 _atom_site_fract_y
 _atom_site_fract_z
 _atom_site_occupancy
  Te  Te0  1  0.12500000  0.00000000  0.25000000  1
  Te  Te1  1  0.00000000  0.00000000  0.00000000  1
  Te  Te2  1  0.37500000  0.00000000  0.25000000  1
  Te  Te3  1  0.25000000  0.25000000  0.25000000  1
  Y  Y4  1  0.00000000  0.25000000  0.12500000  1
  Y  Y5  1  0.55801291  0.78246360  0.93029597  1
  P  P6  1  0.52111531  0.11576654  0.53908834  1
  P  P7  1  0.49237125  0.23039267  0.39654922  1
  P  P8  1  0.25652080  0.15608784  0.62256065  1
  Li  Li9  1  0.02074882  0.95014177  0.32055917  1
