# generated using pymatgen
data_LiF
_symmetry_space_group_name_H-M   'P 1'
_cell_length_a   3.25319312
_cell_length_b   10.14370228
_cell_length_c   7.07165082
_cell_angle_alpha   90.00000000
_cell_angle_beta   90.00000000
_cell_angle_gamma   90.00000000
_symmetry_Int_Tables_number   1
_chemical_formula_structural   LiF
_chemical_formula_sum   'Li10 F10'
_cell_volume   233.36039304
_cell_formula_units_Z   10
loop_
 _symmetry_equiv_pos_site_id
 _symmetry_equiv_pos_as_xyz
  1  'x, y, z'
loop_
 _atom_site_type_symbol
 _atom_site_label
 _atom_site_symmetry_multiplicity
 _atom_site_fract_x
 _atom_site_fract_y
 _atom_site_fract_z
 _atom_site_occupancy
  F  F0  1  0.50415753  0.61009846  0.50000000  1
  F  F1  1  0.49584247  0.38990154  0.50000000  1
  F  F2  1  0.99584247  0.11009846  0.50000000  1
  F  F3  1  0.00415753  0.88990154  0.50000000  1
  F  F4  1  0.00000000  0.00000000  0.21193513  1
  F  F5  1  0.50000000  0.50000000  0.78806487  1
  F  F6  1  0.00000000  0.00000000  0.78806487  1
  F  F7  1  0.50000000  0.50000000  0.21193513  1
  F  F8  1  0.00000000  0.50000000  0.50000000  1
  F  F9  1  0.50000000  0.00000000  0.50000000  1
  Li  Li10  1  0.47616785  0.63085624  0.17675533  1
  Li  Li11  1  -0.47616785  -0.63085624  0.17675533  1
  Li  Li12  1  0.02383215  1.13085624  -0.17675533  1
  Li  Li13  1  0.97616785  -0.13085624  -0.17675533  1
  Li  Li14  1  -0.47616785  -0.63085624  -0.17675533  1
  Li  Li15  1  0.47616785  0.63085624  -0.17675533  1
  Li  Li16  1  0.97616785  -0.13085624  0.17675533  1
  Li  Li17  1  0.02383215  1.13085624  0.17675533  1
  Li  Li18  1  0.00000000  0.00000000  0.00000000  1
  Li  Li19  1  0.50000000  0.50000000  0.00000000  1
