# generated using pymatgen
data_LiYSbP
_symmetry_space_group_name_H-M   'P 1'
_cell_length_a   4.67294056
_cell_length_b   4.78312508
_cell_length_c   6.91563672
_cell_angle_alpha   95.28768018
_cell_angle_beta   101.51546815
_cell_angle_gamma   111.23850974
_symmetry_Int_Tables_number   1
_chemical_formula_structural   LiYSbP
_chemical_formula_sum   'Li2 Y2 Sb2 P2'
_cell_volume   138.86654320
_cell_formula_units_Z   2
loop_
 _symmetry_equiv_pos_site_id
 _symmetry_equiv_pos_as_xyz
  1  'x, y, z'
loop_
 _atom_site_type_symbol
 _atom_site_label
 _atom_site_symmetry_multiplicity
 _atom_site_fract_x
 _atom_site_fract_y
 _atom_site_fract_z
 _atom_site_occupancy
  Y  Y0  1  0.00000000  0.00000000  0.00000000  1
  Y  Y1  1  0.33300000  0.66700000  0.25000000  1
  P  P2  1  0.66700000  0.33300000  0.50000000  1
  P  P3  1  0.00000000  0.00000000  0.75000000  1
  Li  Li4  1  0.46544526  0.49699070  0.58162550  1
  Li  Li5  1  0.24358613  0.86089019  0.05736810  1
  Sb  Sb6  1  0.21703050  0.70629892  0.24747481  1
  Sb  Sb7  1  0.45142433  0.07133733  0.00877674  1
