# generated using pymatgen
data_LiP2Se
_symmetry_space_group_name_H-M   'P 1'
_cell_length_a   4.42811625
_cell_length_b   4.58235537
_cell_length_c   6.16046960
_cell_angle_alpha   95.07849763
_cell_angle_beta   98.37938650
_cell_angle_gamma   106.19453311
_symmetry_Int_Tables_number   1
_chemical_formula_structural   LiP2Se
_chemical_formula_sum   'Li1 P2 Se1'
_cell_volume   117.65910590
_cell_formula_units_Z   1
loop_
 _symmetry_equiv_pos_site_id
 _symmetry_equiv_pos_as_xyz
  1  'x, y, z'
loop_
 _atom_site_type_symbol
 _atom_site_label
 _atom_site_symmetry_multiplicity
 _atom_site_fract_x
 _atom_site_fract_y
 _atom_site_fract_z
 _atom_site_occupancy
  P  P0  1  0.12500000  0.12500000  0.12500000  1
  P  P1  1  0.50000000  0.50000000  0.50000000  1
  Se  Se2  1  0.25000000  0.25000000  0.25000000  1
  Li  Li3  1  0.75000000  0.75000000  0.75000000  1
