# generated using pymatgen
data_Na3Li2Se2F
_symmetry_space_group_name_H-M   'P 1'
_cell_length_a   10.33384773
_cell_length_b   9.73197596
_cell_length_c   6.21685921
_cell_angle_alpha   90.00000000
_cell_angle_beta   90.00000000
_cell_angle_gamma   90.00000000
_symmetry_Int_Tables_number   1
_chemical_formula_structural   Na3Li2Se2F
_chemical_formula_sum   'Na12 Li8 Se8 F4'
_cell_volume   625.22180779
_cell_formula_units_Z   4
loop_
 _symmetry_equiv_pos_site_id
 _symmetry_equiv_pos_as_xyz
  1  'x, y, z'
loop_
 _atom_site_type_symbol
 _atom_site_label
 _atom_site_symmetry_multiplicity
 _atom_site_fract_x
 _atom_site_fract_y
 _atom_site_fract_z
 _atom_site_occupancy
  F  F0  1  0.00000000  0.50000000  0.00000000  1
  F  F1  1  0.50000000  0.00000000  0.50000000  1
  F  F2  1  0.00000000  0.00000000  0.50000000  1
  F  F3  1  0.50000000  0.50000000  0.00000000  1
  Li  Li4  1  0.42860547  0.64323561  0.00000000  1
  Li  Li5  1  0.57139453  0.35676439  0.00000000  1
  Li  Li6  1  0.07139453  0.14323561  0.50000000  1
  Li  Li7  1  0.92860547  0.85676439  0.50000000  1
  Li  Li8  1  0.96240113  0.79104380  0.00000000  1
  Li  Li9  1  0.03759887  0.20895620  0.00000000  1
  Li  Li10  1  0.53759887  0.29104380  0.50000000  1
  Li  Li11  1  0.46240113  0.70895620  0.50000000  1
  Na  Na12  1  0.26944776  0.22469137  0.00000000  1
  Na  Na13  1  0.73055224  0.77530863  0.00000000  1
  Na  Na14  1  0.23055224  0.72469137  0.50000000  1
  Na  Na15  1  0.76944776  0.27530863  0.50000000  1
  Na  Na16  1  0.40993130  0.35342539  0.00000000  1
  Na  Na17  1  0.59006870  0.64657461  0.00000000  1
  Na  Na18  1  0.09006870  0.85342539  0.50000000  1
  Na  Na19  1  0.90993130  0.14657461  0.50000000  1
  Na  Na20  1  0.00000000  0.50000000  0.50000000  1
  Na  Na21  1  0.50000000  0.00000000  0.00000000  1
  Na  Na22  1  0.00000000  0.00000000  0.00000000  1
  Na  Na23  1  0.50000000  0.50000000  0.50000000  1
  Se  Se24  1  0.56050773  0.05533915  0.80281025  1
  Se  Se25  1  -0.56050773  -0.05533915  0.80281025  1
  Se  Se26  1  -0.06050773  0.55533915  -0.30281025  1
  Se  Se27  1  1.06050773  0.44466085  -0.30281025  1
  Se  Se28  1  -0.56050773  -0.05533915  -0.80281025  1
  Se  Se29  1  0.56050773  0.05533915  -0.80281025  1
  Se  Se30  1  1.06050773  0.44466085  1.30281025  1
  Se  Se31  1  -0.06050773  0.55533915  1.30281025  1
