# generated using pymatgen
data_LiYAs2P2Se
_symmetry_space_group_name_H-M   'P 1'
_cell_length_a   4.06041345
_cell_length_b   4.33309333
_cell_length_c   5.93238563
_cell_angle_alpha   96.42782775
_cell_angle_beta   100.63542068
_cell_angle_gamma   107.48457213
_symmetry_Int_Tables_number   1
_chemical_formula_structural   LiYAs2P2Se
_chemical_formula_sum   'Li1 Y1 As2 P2 Se1'
_cell_volume   96.26998766
_cell_formula_units_Z   1
loop_
 _symmetry_equiv_pos_site_id
 _symmetry_equiv_pos_as_xyz
  1  'x, y, z'
loop_
 _atom_site_type_symbol
 _atom_site_label
 _atom_site_symmetry_multiplicity
 _atom_site_fract_x
 _atom_site_fract_y
 _atom_site_fract_z
 _atom_site_occupancy
  Se  Se0  1  0.00000000  0.00000000  0.00000000  1
  Y  Y1  1  0.50000000  0.50000000  0.50000000  1
  P  P2  1  0.25000000  0.25000000  0.25000000  1
  P  P3  1  0.75000000  0.25000000  0.00000000  1
  As  As4  1  0.25000000  0.75000000  0.50000000  1
  As  As5  1  0.47148535  0.65045011  0.06689888  1
  Li  Li6  1  0.38938487  0.68577875  0.26393842  1
