# generated using pymatgen
data_Li2Mo2P2Se
_symmetry_space_group_name_H-M   'P 1'
_cell_length_a   4.71841388
_cell_length_b   5.01401588
_cell_length_c   6.44229035
_cell_angle_alpha   93.51480034
_cell_angle_beta   98.07873525
_cell_angle_gamma   104.46315698
_symmetry_Int_Tables_number   1
_chemical_formula_structural   Li2Mo2P2Se
_chemical_formula_sum   'Li2 Mo2 P2 Se1'
_cell_volume   145.37751482
_cell_formula_units_Z   1
loop_
 _symmetry_equiv_pos_site_id
 _symmetry_equiv_pos_as_xyz
  1  'x, y, z'
loop_
 _atom_site_type_symbol
 _atom_site_label
 _atom_site_symmetry_multiplicity
 _atom_site_fract_x
 _atom_site_fract_y
 _atom_site_fract_z
 _atom_site_occupancy
  Se  Se0  1  0.12500000  0.00000000  0.25000000  1
  P  P1  1  0.00000000  0.00000000  0.00000000  1
  P  P2  1  0.37500000  0.00000000  0.25000000  1
  Mo  Mo3  1  0.25000000  0.25000000  0.25000000  1
  Mo  Mo4  1  0.00000000  0.25000000  0.12500000  1
  Li  Li5  1  0.78672964  0.41526663  0.15379774  1
  Li  Li6  1  0.56588884  0.69570062  0.82643242  1
