# generated using pymatgen
data_Li2Y2As4P2Se
_symmetry_space_group_name_H-M   'P 1'
_cell_length_a   5.81010769
_cell_length_b   6.01162016
_cell_length_c   7.02570530
_cell_angle_alpha   92.55803059
_cell_angle_beta   95.15733854
_cell_angle_gamma   99.51961110
_symmetry_Int_Tables_number   1
_chemical_formula_structural   Li2Y2As4P2Se
_chemical_formula_sum   'Li2 Y2 As4 P2 Se1'
_cell_volume   240.59325629
_cell_formula_units_Z   1
loop_
 _symmetry_equiv_pos_site_id
 _symmetry_equiv_pos_as_xyz
  1  'x, y, z'
loop_
 _atom_site_type_symbol
 _atom_site_label
 _atom_site_symmetry_multiplicity
 _atom_site_fract_x
 _atom_site_fract_y
 _atom_site_fract_z
 _atom_site_occupancy
  Se  Se0  1  0.00000000  0.00000000  0.00000000  1
  P  P1  1  0.50000000  0.50000000  0.50000000  1
  P  P2  1  0.50000000  0.50000000  0.00000000  1
  As  As3  1  0.50000000  0.00000000  0.50000000  1
  As  As4  1  0.00000000  0.50000000  0.50000000  1
  As  As5  1  0.54274688  0.40359334  0.49813592  1
  As  As6  1  0.77368240  0.14640647  0.62292513  1
  Li  Li7  1  0.72302100  0.86598194  0.36960577  1
  Li  Li8  1  0.57585307  0.84594732  0.66991021  1
  Y  Y9  1  0.32318650  0.03016738  0.05024091  1
  Y  Y10  1  0.35568383  0.86837157  0.95354658  1
