# generated using pymatgen
data_LiY2Te4P2Se
_symmetry_space_group_name_H-M   'P 1'
_cell_length_a   5.16327193
_cell_length_b   5.35515843
_cell_length_c   6.79569945
_cell_angle_alpha   94.07545273
_cell_angle_beta   97.23972126
_cell_angle_gamma   103.80415749
_symmetry_Int_Tables_number   1
_chemical_formula_structural   LiY2Te4P2Se
_chemical_formula_sum   'Li1 Y2 Te4 P2 Se1'
_cell_volume   180.01974959
_cell_formula_units_Z   1
loop_
 _symmetry_equiv_pos_site_id
 _symmetry_equiv_pos_as_xyz
  1  'x, y, z'
loop_
 _atom_site_type_symbol
 _atom_site_label
 _atom_site_symmetry_multiplicity
 _atom_site_fract_x
 _atom_site_fract_y
 _atom_site_fract_z
 _atom_site_occupancy
  Se  Se0  1  0.00000000  0.00000000  0.00000000  1
  Te  Te1  1  0.50000000  0.50000000  0.50000000  1
  Te  Te2  1  0.50000000  0.50000000  0.00000000  1
  Te  Te3  1  0.50000000  0.00000000  0.50000000  1
  Te  Te4  1  0.00000000  0.50000000  0.50000000  1
  Y  Y5  1  0.56154293  0.55016005  0.31683385  1
  Y  Y6  1  0.90504745  0.20890113  0.66489604  1
  P  P7  1  0.38556478  0.69243911  0.01875451  1
  P  P8  1  0.98268568  0.04483251  0.69273374  1
  Li  Li9  1  0.64951279  0.45634579  0.95870698  1
