# generated using pymatgen
data_LiF
_symmetry_space_group_name_H-M   'P 1'
_cell_length_a   9.00188580
_cell_length_b   9.00188580
_cell_length_c   15.73338045
_cell_angle_alpha   90.00000000
_cell_angle_beta   90.00000000
_cell_angle_gamma   90.00000000
_symmetry_Int_Tables_number   1
_chemical_formula_structural   LiF
_chemical_formula_sum   'Li64 F64'
_cell_volume   1274.93793211
_cell_formula_units_Z   64
loop_
 _symmetry_equiv_pos_site_id
 _symmetry_equiv_pos_as_xyz
  1  'x, y, z'
loop_
 _atom_site_type_symbol
 _atom_site_label
 _atom_site_symmetry_multiplicity
 _atom_site_fract_x
 _atom_site_fract_y
 _atom_site_fract_z
 _atom_site_occupancy
  F  F0  1  0.06143090  0.86268537  0.72166337  1
  F  F1  1  0.43856910  0.13731463  0.22166337  1
  F  F2  1  0.38731463  0.81143090  0.97166337  1
  F  F3  1  0.11268537  0.18856910  0.47166337  1
  F  F4  1  0.43856910  0.86268537  0.27833663  1
  F  F5  1  0.06143090  0.13731463  0.77833663  1
  F  F6  1  0.11268537  0.81143090  0.02833663  1
  F  F7  1  0.38731463  0.18856910  0.52833663  1
  F  F8  1  0.93856910  0.13731463  0.27833663  1
  F  F9  1  0.56143090  0.86268537  0.77833663  1
  F  F10  1  0.61268537  0.18856910  0.02833663  1
  F  F11  1  0.88731463  0.81143090  0.52833663  1
  F  F12  1  0.56143090  0.13731463  0.72166337  1
  F  F13  1  0.93856910  0.86268537  0.22166337  1
  F  F14  1  0.88731463  0.18856910  0.97166337  1
  F  F15  1  0.61268537  0.81143090  0.47166337  1
  F  F16  1  0.56143090  0.36268537  0.22166337  1
  F  F17  1  0.93856910  0.63731463  0.72166337  1
  F  F18  1  0.88731463  0.31143090  0.47166337  1
  F  F19  1  0.61268537  0.68856910  0.97166337  1
  F  F20  1  0.93856910  0.36268537  0.77833663  1
  F  F21  1  0.56143090  0.63731463  0.27833663  1
  F  F22  1  0.61268537  0.31143090  0.52833663  1
  F  F23  1  0.88731463  0.68856910  0.02833663  1
  F  F24  1  0.43856910  0.63731463  0.77833663  1
  F  F25  1  0.06143090  0.36268537  0.27833663  1
  F  F26  1  0.11268537  0.68856910  0.52833663  1
  F  F27  1  0.38731463  0.31143090  0.02833663  1
  F  F28  1  0.06143090  0.63731463  0.22166337  1
  F  F29  1  0.43856910  0.36268537  0.72166337  1
  F  F30  1  0.38731463  0.68856910  0.47166337  1
  F  F31  1  0.11268537  0.31143090  0.97166337  1
  F  F32  1  0.65864753  0.92406434  0.96871042  1
  F  F33  1  0.84135247  0.07593566  0.46871042  1
  F  F34  1  0.32593566  0.40864753  0.21871042  1
  F  F35  1  0.17406434  0.59135247  0.71871042  1
  F  F36  1  0.84135247  0.92406434  0.03128958  1
  F  F37  1  0.65864753  0.07593566  0.53128958  1
  F  F38  1  0.17406434  0.40864753  0.78128958  1
  F  F39  1  0.32593566  0.59135247  0.28128958  1
  F  F40  1  0.34135247  0.07593566  0.03128958  1
  F  F41  1  0.15864753  0.92406434  0.53128958  1
  F  F42  1  0.67406434  0.59135247  0.78128958  1
  F  F43  1  0.82593566  0.40864753  0.28128958  1
  F  F44  1  0.15864753  0.07593566  0.96871042  1
  F  F45  1  0.34135247  0.92406434  0.46871042  1
  F  F46  1  0.82593566  0.59135247  0.21871042  1
  F  F47  1  0.67406434  0.40864753  0.71871042  1
  F  F48  1  0.15864753  0.42406434  0.46871042  1
  F  F49  1  0.34135247  0.57593566  0.96871042  1
  F  F50  1  0.82593566  0.90864753  0.71871042  1
  F  F51  1  0.67406434  0.09135247  0.21871042  1
  F  F52  1  0.34135247  0.42406434  0.53128958  1
  F  F53  1  0.15864753  0.57593566  0.03128958  1
  F  F54  1  0.67406434  0.90864753  0.28128958  1
  F  F55  1  0.82593566  0.09135247  0.78128958  1
  F  F56  1  0.84135247  0.57593566  0.53128958  1
  F  F57  1  0.65864753  0.42406434  0.03128958  1
  F  F58  1  0.17406434  0.09135247  0.28128958  1
  F  F59  1  0.32593566  0.90864753  0.78128958  1
  F  F60  1  0.65864753  0.57593566  0.46871042  1
  F  F61  1  0.84135247  0.42406434  0.96871042  1
  F  F62  1  0.32593566  0.09135247  0.71871042  1
  F  F63  1  0.17406434  0.90864753  0.21871042  1
  Li  Li64  1  0.70765501  0.86269286  0.79777478  1
  Li  Li65  1  -0.20765501  -0.86269286  1.29777478  1
  Li  Li66  1  -0.61269286  1.45765501  1.04777478  1
  Li  Li67  1  1.11269286  -0.45765501  1.54777478  1
  Li  Li68  1  -0.20765501  0.86269286  -0.79777478  1
  Li  Li69  1  0.70765501  -0.86269286  -0.29777478  1
  Li  Li70  1  1.11269286  1.45765501  -0.04777478  1
  Li  Li71  1  -0.61269286  -0.45765501  -0.54777478  1
  Li  Li72  1  -0.70765501  -0.86269286  -0.79777478  1
  Li  Li73  1  1.20765501  0.86269286  -0.29777478  1
  Li  Li74  1  1.61269286  -0.45765501  -0.04777478  1
  Li  Li75  1  -0.11269286  1.45765501  -0.54777478  1
  Li  Li76  1  1.20765501  -0.86269286  0.79777478  1
  Li  Li77  1  -0.70765501  0.86269286  1.29777478  1
  Li  Li78  1  -0.11269286  -0.45765501  1.04777478  1
  Li  Li79  1  1.61269286  1.45765501  1.54777478  1
  Li  Li80  1  1.20765501  1.36269286  1.29777478  1
  Li  Li81  1  0.29234499  -0.36269286  1.79777478  1
  Li  Li82  1  -0.11269286  1.95765501  1.54777478  1
  Li  Li83  1  1.61269286  0.04234499  2.04777478  1
  Li  Li84  1  0.29234499  1.36269286  -0.29777478  1
  Li  Li85  1  1.20765501  -0.36269286  0.20222522  1
  Li  Li86  1  1.61269286  1.95765501  0.45222522  1
  Li  Li87  1  -0.11269286  0.04234499  -0.04777478  1
  Li  Li88  1  -0.20765501  -0.36269286  -0.29777478  1
  Li  Li89  1  1.70765501  1.36269286  0.20222522  1
  Li  Li90  1  2.11269286  0.04234499  0.45222522  1
  Li  Li91  1  0.38730714  1.95765501  -0.04777478  1
  Li  Li92  1  1.70765501  -0.36269286  1.29777478  1
  Li  Li93  1  -0.20765501  1.36269286  1.79777478  1
  Li  Li94  1  0.38730714  0.04234499  1.54777478  1
  Li  Li95  1  2.11269286  1.95765501  2.04777478  1
  Li  Li96  1  0.00000000  0.25000000  0.12500000  1
  Li  Li97  1  0.00000000  0.75000000  0.37500000  1
  Li  Li98  1  0.00000000  0.75000000  0.87500000  1
  Li  Li99  1  0.00000000  0.25000000  0.62500000  1
  Li  Li100  1  0.50000000  0.75000000  0.62500000  1
  Li  Li101  1  0.50000000  0.25000000  0.87500000  1
  Li  Li102  1  0.50000000  0.25000000  0.37500000  1
  Li  Li103  1  0.50000000  0.75000000  0.12500000  1
  Li  Li104  1  0.74908003  -0.00000000  0.25000000  1
  Li  Li105  1  0.75091997  -0.00000000  0.75000000  1
  Li  Li106  1  0.25000000  0.49908003  0.50000000  1
  Li  Li107  1  0.25000000  0.50091997  0.00000000  1
  Li  Li108  1  0.25091997  0.00000000  0.75000000  1
  Li  Li109  1  0.24908003  0.00000000  0.25000000  1
  Li  Li110  1  0.75000000  0.50091997  0.50000000  1
  Li  Li111  1  0.75000000  0.49908003  0.00000000  1
  Li  Li112  1  0.24908003  0.50000000  0.75000000  1
  Li  Li113  1  0.25091997  0.50000000  0.25000000  1
  Li  Li114  1  0.75000000  0.99908003  0.00000000  1
  Li  Li115  1  0.75000000  0.00091997  0.50000000  1
  Li  Li116  1  0.75091997  0.50000000  0.25000000  1
  Li  Li117  1  0.74908003  0.50000000  0.75000000  1
  Li  Li118  1  0.25000000  0.00091997  -0.00000000  1
  Li  Li119  1  0.25000000  0.99908003  0.50000000  1
  Li  Li120  1  0.00000000  0.25000000  0.37500000  1
  Li  Li121  1  0.00000000  0.75000000  0.62500000  1
  Li  Li122  1  0.50000000  0.25000000  0.62500000  1
  Li  Li123  1  0.50000000  0.75000000  0.37500000  1
  Li  Li124  1  0.50000000  0.75000000  0.87500000  1
  Li  Li125  1  0.50000000  0.25000000  0.12500000  1
  Li  Li126  1  0.00000000  0.75000000  0.12500000  1
  Li  Li127  1  0.00000000  0.25000000  0.87500000  1
