# generated using pymatgen
data_LiF
_symmetry_space_group_name_H-M   'P 1'
_cell_length_a   15.44103512
_cell_length_b   15.44103512
_cell_length_c   5.83105253
_cell_angle_alpha   90.00000000
_cell_angle_beta   90.00000000
_cell_angle_gamma   120.00000000
_symmetry_Int_Tables_number   1
_chemical_formula_structural   LiF
_chemical_formula_sum   'Li43 F43'
_cell_volume   1204.01086844
_cell_formula_units_Z   43
loop_
 _symmetry_equiv_pos_site_id
 _symmetry_equiv_pos_as_xyz
  1  'x, y, z'
loop_
 _atom_site_type_symbol
 _atom_site_label
 _atom_site_symmetry_multiplicity
 _atom_site_fract_x
 _atom_site_fract_y
 _atom_site_fract_z
 _atom_site_occupancy
  F  F0  1  0.42142745  0.26533565  0.65450510  1
  F  F1  1  0.73466435  0.15609180  0.65450510  1
  F  F2  1  0.84390820  0.57857255  0.65450510  1
  F  F3  1  0.73466435  0.57857255  0.34549490  1
  F  F4  1  0.84390820  0.26533565  0.34549490  1
  F  F5  1  0.42142745  0.15609180  0.34549490  1
  F  F6  1  0.27175190  0.67076309  0.08934015  1
  F  F7  1  0.32923691  0.60098881  0.08934015  1
  F  F8  1  0.39901119  0.72824810  0.08934015  1
  F  F9  1  0.32923691  0.72824810  0.91065985  1
  F  F10  1  0.39901119  0.67076309  0.91065985  1
  F  F11  1  0.27175190  0.60098881  0.91065985  1
  F  F12  1  0.23770964  0.06217979  0.67381767  1
  F  F13  1  0.93782021  0.17552986  0.67381767  1
  F  F14  1  0.82447014  0.76229036  0.67381767  1
  F  F15  1  0.93782021  0.76229036  0.32618233  1
  F  F16  1  0.82447014  0.06217979  0.32618233  1
  F  F17  1  0.23770964  0.17552986  0.32618233  1
  F  F18  1  0.43605820  0.56394180  0.50000000  1
  F  F19  1  0.43605820  0.87211641  0.50000000  1
  F  F20  1  0.12788359  0.56394180  0.50000000  1
  F  F21  1  0.54534491  0.18598087  0.04332143  1
  F  F22  1  0.81401913  0.35936405  0.04332143  1
  F  F23  1  0.64063595  0.45465509  0.04332143  1
  F  F24  1  0.81401913  0.45465509  0.95667857  1
  F  F25  1  0.64063595  0.18598087  0.95667857  1
  F  F26  1  0.54534491  0.35936405  0.95667857  1
  F  F27  1  0.71149075  0.93196663  0.96820252  1
  F  F28  1  0.06803337  0.77952412  0.96820252  1
  F  F29  1  0.22047588  0.28850925  0.96820252  1
  F  F30  1  0.06803337  0.28850925  0.03179748  1
  F  F31  1  0.22047588  0.93196663  0.03179748  1
  F  F32  1  0.71149075  0.77952412  0.03179748  1
  F  F33  1  0.33333333  0.66666667  0.50000000  1
  F  F34  1  0.96797171  0.89784384  0.75075720  1
  F  F35  1  0.10215616  0.07012787  0.75075720  1
  F  F36  1  0.92987213  0.03202829  0.75075720  1
  F  F37  1  0.10215616  0.03202829  0.24924280  1
  F  F38  1  0.92987213  0.89784384  0.24924280  1
  F  F39  1  0.96797171  0.07012787  0.24924280  1
  F  F40  1  0.51233451  0.48766549  0.50000000  1
  F  F41  1  0.51233451  0.02466903  0.50000000  1
  F  F42  1  0.97533097  0.48766549  0.50000000  1
  Li  Li43  1  0.91772323  0.08227677  0.50000000  1
  Li  Li44  1  0.91772323  0.83544646  0.50000000  1
  Li  Li45  1  0.16455354  0.08227677  0.50000000  1
  Li  Li46  1  0.03793719  0.95103391  0.32992748  1
  Li  Li47  1  -0.95103391  -0.91309672  0.32992748  1
  Li  Li48  1  0.91309672  -0.03793719  0.32992748  1
  Li  Li49  1  -0.95103391  -0.03793719  -0.32992748  1
  Li  Li50  1  0.91309672  0.95103391  -0.32992748  1
  Li  Li51  1  0.03793719  -0.91309672  -0.32992748  1
  Li  Li52  1  0.07383650  0.92616350  -0.00000000  1
  Li  Li53  1  0.07383650  0.14767300  -0.00000000  1
  Li  Li54  1  0.85232700  0.92616350  -0.00000000  1
  Li  Li55  1  0.53171857  0.63732052  0.19064276  1
  Li  Li56  1  0.36267948  0.89439805  0.19064276  1
  Li  Li57  1  0.10560195  0.46828143  0.19064276  1
  Li  Li58  1  0.36267948  0.46828143  0.80935724  1
  Li  Li59  1  0.10560195  0.63732052  0.80935724  1
  Li  Li60  1  0.53171857  0.89439805  0.80935724  1
  Li  Li61  1  0.68961261  0.45150665  0.73983084  1
  Li  Li62  1  0.54849335  0.23810596  0.73983084  1
  Li  Li63  1  0.76189404  0.31038739  0.73983084  1
  Li  Li64  1  0.54849335  0.31038739  0.26016916  1
  Li  Li65  1  0.76189404  0.45150665  0.26016916  1
  Li  Li66  1  0.68961261  0.23810596  0.26016916  1
  Li  Li67  1  0.52346486  0.64877662  0.91700322  1
  Li  Li68  1  0.35122338  0.87468824  0.91700322  1
  Li  Li69  1  0.12531176  0.47653514  0.91700322  1
  Li  Li70  1  0.35122338  0.47653514  0.08299678  1
  Li  Li71  1  0.12531176  0.64877662  0.08299678  1
  Li  Li72  1  0.52346486  0.87468824  0.08299678  1
  Li  Li73  1  0.78277568  0.31548082  0.35976081  1
  Li  Li74  1  0.68451918  0.46729486  0.35976081  1
  Li  Li75  1  0.53270514  0.21722432  0.35976081  1
  Li  Li76  1  0.68451918  0.21722432  0.64023919  1
  Li  Li77  1  0.53270514  0.31548082  0.64023919  1
  Li  Li78  1  0.78277568  0.46729486  0.64023919  1
  Li  Li79  1  0.64511555  0.72038776  0.45051388  1
  Li  Li80  1  0.27961224  0.92472778  0.45051388  1
  Li  Li81  1  0.07527222  0.35488445  0.45051388  1
  Li  Li82  1  0.27961224  0.35488445  0.54948612  1
  Li  Li83  1  0.07527222  0.72038776  0.54948612  1
  Li  Li84  1  0.64511555  0.92472778  0.54948612  1
  Li  Li85  1  0.00000000  0.00000000  0.50000000  1
