# generated using pymatgen
data_Li3Y2(P2Se)2
_symmetry_space_group_name_H-M   'P 1'
_cell_length_a   4.93309057
_cell_length_b   5.25093769
_cell_length_c   7.16526550
_cell_angle_alpha   94.83048542
_cell_angle_beta   100.51979301
_cell_angle_gamma   109.40214010
_symmetry_Int_Tables_number   1
_chemical_formula_structural   Li3Y2(P2Se)2
_chemical_formula_sum   'Li3 Y2 P4 Se2'
_cell_volume   170.00858603
_cell_formula_units_Z   1
loop_
 _symmetry_equiv_pos_site_id
 _symmetry_equiv_pos_as_xyz
  1  'x, y, z'
loop_
 _atom_site_type_symbol
 _atom_site_label
 _atom_site_symmetry_multiplicity
 _atom_site_fract_x
 _atom_site_fract_y
 _atom_site_fract_z
 _atom_site_occupancy
  Se  Se0  1  0.12500000  0.00000000  0.25000000  1
  Se  Se1  1  0.00000000  0.00000000  0.00000000  1
  Y  Y2  1  0.37500000  0.00000000  0.25000000  1
  Y  Y3  1  0.25000000  0.25000000  0.25000000  1
  P  P4  1  0.00000000  0.25000000  0.12500000  1
  P  P5  1  0.39829574  0.12246396  0.75335335  1
  P  P6  1  0.82285833  0.36828844  0.67974526  1
  P  P7  1  0.86349075  0.11219409  0.86885035  1
  Li  Li8  1  0.10094364  0.58849805  0.29203933  1
  Li  Li9  1  0.36299531  0.45907949  0.53187337  1
  Li  Li10  1  0.60569945  0.42655820  0.39208231  1
