# generated using pymatgen
data_LiF
_symmetry_space_group_name_H-M   'P 1'
_cell_length_a   6.52164601
_cell_length_b   6.52164601
_cell_length_c   15.54803823
_cell_angle_alpha   90.00000000
_cell_angle_beta   90.00000000
_cell_angle_gamma   120.00000000
_symmetry_Int_Tables_number   1
_chemical_formula_structural   LiF
_chemical_formula_sum   'Li28 F28'
_cell_volume   572.69141768
_cell_formula_units_Z   28
loop_
 _symmetry_equiv_pos_site_id
 _symmetry_equiv_pos_as_xyz
  1  'x, y, z'
loop_
 _atom_site_type_symbol
 _atom_site_label
 _atom_site_symmetry_multiplicity
 _atom_site_fract_x
 _atom_site_fract_y
 _atom_site_fract_z
 _atom_site_occupancy
  F  F0  1  0.66666667  0.33333333  0.25000000  1
  F  F1  1  0.33333333  0.66666667  0.75000000  1
  F  F2  1  0.58302717  0.92101760  0.35510372  1
  F  F3  1  -0.92101760  -0.33799043  0.35510372  1
  F  F4  1  0.33799043  -0.58302717  0.35510372  1
  F  F5  1  -0.58302717  -0.92101760  0.85510372  1
  F  F6  1  0.92101760  0.33799043  0.85510372  1
  F  F7  1  -0.33799043  0.58302717  0.85510372  1
  F  F8  1  -0.58302717  -0.92101760  -0.35510372  1
  F  F9  1  0.92101760  0.33799043  -0.35510372  1
  F  F10  1  -0.33799043  0.58302717  -0.35510372  1
  F  F11  1  0.58302717  0.92101760  0.14489628  1
  F  F12  1  -0.92101760  -0.33799043  0.14489628  1
  F  F13  1  0.33799043  -0.58302717  0.14489628  1
  F  F14  1  0.63896025  0.45300221  0.06111164  1
  F  F15  1  0.54699779  0.18595803  0.06111164  1
  F  F16  1  0.81404197  0.36103975  0.06111164  1
  F  F17  1  0.36103975  0.54699779  0.56111164  1
  F  F18  1  0.45300221  0.81404197  0.56111164  1
  F  F19  1  0.18595803  0.63896025  0.56111164  1
  F  F20  1  0.36103975  0.54699779  0.93888836  1
  F  F21  1  0.45300221  0.81404197  0.93888836  1
  F  F22  1  0.18595803  0.63896025  0.93888836  1
  F  F23  1  0.63896025  0.45300221  0.43888836  1
  F  F24  1  0.54699779  0.18595803  0.43888836  1
  F  F25  1  0.81404197  0.36103975  0.43888836  1
  F  F26  1  0.00000000  0.00000000  0.25000000  1
  F  F27  1  0.00000000  0.00000000  0.75000000  1
  Li  Li28  1  0.31492113  0.93568568  0.33535096  1
  Li  Li29  1  0.06431432  0.37923545  0.33535096  1
  Li  Li30  1  0.62076455  0.68507887  0.33535096  1
  Li  Li31  1  0.68507887  0.06431432  0.83535096  1
  Li  Li32  1  0.93568568  0.62076455  0.83535096  1
  Li  Li33  1  0.37923545  0.31492113  0.83535096  1
  Li  Li34  1  0.68507887  0.06431432  0.66464904  1
  Li  Li35  1  0.93568568  0.62076455  0.66464904  1
  Li  Li36  1  0.37923545  0.31492113  0.66464904  1
  Li  Li37  1  0.31492113  0.93568568  0.16464904  1
  Li  Li38  1  0.06431432  0.37923545  0.16464904  1
  Li  Li39  1  0.62076455  0.68507887  0.16464904  1
  Li  Li40  1  0.60593510  0.79950444  0.60641032  1
  Li  Li41  1  0.20049556  0.80643066  0.60641032  1
  Li  Li42  1  0.19356934  0.39406490  0.60641032  1
  Li  Li43  1  0.39406490  0.20049556  0.10641032  1
  Li  Li44  1  0.79950444  0.19356934  0.10641032  1
  Li  Li45  1  0.80643066  0.60593510  0.10641032  1
  Li  Li46  1  0.39406490  0.20049556  0.39358968  1
  Li  Li47  1  0.79950444  0.19356934  0.39358968  1
  Li  Li48  1  0.80643066  0.60593510  0.39358968  1
  Li  Li49  1  0.60593510  0.79950444  0.89358968  1
  Li  Li50  1  0.20049556  0.80643066  0.89358968  1
  Li  Li51  1  0.19356934  0.39406490  0.89358968  1
  Li  Li52  1  0.00000000  0.00000000  0.35174525  1
  Li  Li53  1  0.00000000  0.00000000  0.85174525  1
  Li  Li54  1  0.00000000  0.00000000  0.64825475  1
  Li  Li55  1  0.00000000  0.00000000  0.14825475  1
