# generated using pymatgen
data_LiCaF3
_symmetry_space_group_name_H-M   'P 1'
_cell_length_a   11.33115687
_cell_length_b   9.91928367
_cell_length_c   14.06779736
_cell_angle_alpha   90.00000000
_cell_angle_beta   90.00000000
_cell_angle_gamma   90.00000000
_symmetry_Int_Tables_number   1
_chemical_formula_structural   LiCaF3
_chemical_formula_sum   'Li18 Ca18 F54'
_cell_volume   1581.17764766
_cell_formula_units_Z   18
loop_
 _symmetry_equiv_pos_site_id
 _symmetry_equiv_pos_as_xyz
  1  'x, y, z'
loop_
 _atom_site_type_symbol
 _atom_site_label
 _atom_site_symmetry_multiplicity
 _atom_site_fract_x
 _atom_site_fract_y
 _atom_site_fract_z
 _atom_site_occupancy
  Ca  Ca0  1  0.84373055  0.84444489  0.33223290  1
  Ca  Ca1  1  -0.84373055  -0.84444489  0.33223290  1
  Ca  Ca2  1  -0.34373055  1.34444489  -0.33223290  1
  Ca  Ca3  1  1.34373055  -0.34444489  -0.33223290  1
  Ca  Ca4  1  -0.84373055  -0.84444489  -0.33223290  1
  Ca  Ca5  1  0.84373055  0.84444489  -0.33223290  1
  Ca  Ca6  1  1.34373055  -0.34444489  0.33223290  1
  Ca  Ca7  1  -0.34373055  1.34444489  0.33223290  1
  Ca  Ca8  1  0.48850564  0.70697547  0.41685290  1
  Ca  Ca9  1  0.51149436  0.29302453  0.41685290  1
  Ca  Ca10  1  0.01149436  0.20697547  0.58314710  1
  Ca  Ca11  1  0.98850564  0.79302453  0.58314710  1
  Ca  Ca12  1  0.51149436  0.29302453  0.58314710  1
  Ca  Ca13  1  0.48850564  0.70697547  0.58314710  1
  Ca  Ca14  1  0.98850564  0.79302453  0.41685290  1
  Ca  Ca15  1  0.01149436  0.20697547  0.41685290  1
  Ca  Ca16  1  0.00000000  0.50000000  -0.00000000  1
  Ca  Ca17  1  0.50000000  0.00000000  0.00000000  1
  F  F18  1  0.17203587  0.76228207  0.07163006  1
  F  F19  1  0.82796413  0.23771793  0.07163006  1
  F  F20  1  0.32796413  0.26228207  0.92836994  1
  F  F21  1  0.67203587  0.73771793  0.92836994  1
  F  F22  1  0.82796413  0.23771793  0.92836994  1
  F  F23  1  0.17203587  0.76228207  0.92836994  1
  F  F24  1  0.67203587  0.73771793  0.07163006  1
  F  F25  1  0.32796413  0.26228207  0.07163006  1
  F  F26  1  0.78225067  0.35139836  0.69735521  1
  F  F27  1  0.21774933  0.64860164  0.69735521  1
  F  F28  1  0.71774933  0.85139836  0.30264479  1
  F  F29  1  0.28225067  0.14860164  0.30264479  1
  F  F30  1  0.21774933  0.64860164  0.30264479  1
  F  F31  1  0.78225067  0.35139836  0.30264479  1
  F  F32  1  0.28225067  0.14860164  0.69735521  1
  F  F33  1  0.71774933  0.85139836  0.69735521  1
  F  F34  1  0.94054936  0.33064710  0.65637550  1
  F  F35  1  0.05945064  0.66935290  0.65637550  1
  F  F36  1  0.55945064  0.83064710  0.34362450  1
  F  F37  1  0.44054936  0.16935290  0.34362450  1
  F  F38  1  0.05945064  0.66935290  0.34362450  1
  F  F39  1  0.94054936  0.33064710  0.34362450  1
  F  F40  1  0.44054936  0.16935290  0.65637550  1
  F  F41  1  0.55945064  0.83064710  0.65637550  1
  F  F42  1  0.82268216  0.41788071  0.59690910  1
  F  F43  1  0.17731784  0.58211929  0.59690910  1
  F  F44  1  0.67731784  0.91788071  0.40309090  1
  F  F45  1  0.32268216  0.08211929  0.40309090  1
  F  F46  1  0.17731784  0.58211929  0.40309090  1
  F  F47  1  0.82268216  0.41788071  0.40309090  1
  F  F48  1  0.32268216  0.08211929  0.59690910  1
  F  F49  1  0.67731784  0.91788071  0.59690910  1
  F  F50  1  0.00000000  0.50000000  0.30055920  1
  F  F51  1  0.50000000  0.00000000  0.69944080  1
  F  F52  1  0.00000000  0.50000000  0.69944080  1
  F  F53  1  0.50000000  0.00000000  0.30055920  1
  F  F54  1  0.10995833  0.73523033  0.32761754  1
  F  F55  1  0.89004167  0.26476967  0.32761754  1
  F  F56  1  0.39004167  0.23523033  0.67238246  1
  F  F57  1  0.60995833  0.76476967  0.67238246  1
  F  F58  1  0.89004167  0.26476967  0.67238246  1
  F  F59  1  0.10995833  0.73523033  0.67238246  1
  F  F60  1  0.60995833  0.76476967  0.32761754  1
  F  F61  1  0.39004167  0.23523033  0.32761754  1
  F  F62  1  0.76361917  0.17094581  0.90175478  1
  F  F63  1  0.23638083  0.82905419  0.90175478  1
  F  F64  1  0.73638083  0.67094581  0.09824522  1
  F  F65  1  0.26361917  0.32905419  0.09824522  1
  F  F66  1  0.23638083  0.82905419  0.09824522  1
  F  F67  1  0.76361917  0.17094581  0.09824522  1
  F  F68  1  0.26361917  0.32905419  0.90175478  1
  F  F69  1  0.73638083  0.67094581  0.90175478  1
  F  F70  1  0.00000000  0.50000000  0.50000000  1
  F  F71  1  0.50000000  0.00000000  0.50000000  1
  Li  Li72  1  0.71180696  0.59821958  0.00000000  1
  Li  Li73  1  0.28819304  0.40178042  0.00000000  1
  Li  Li74  1  0.78819304  0.09821958  -0.00000000  1
  Li  Li75  1  0.21180696  0.90178042  0.00000000  1
  Li  Li76  1  0.99017264  0.18705864  0.16811128  1
  Li  Li77  1  0.00982736  0.81294136  0.16811128  1
  Li  Li78  1  0.50982736  0.68705864  0.83188872  1
  Li  Li79  1  0.49017264  0.31294136  0.83188872  1
  Li  Li80  1  0.00982736  0.81294136  0.83188872  1
  Li  Li81  1  0.99017264  0.18705864  0.83188872  1
  Li  Li82  1  0.49017264  0.31294136  0.16811128  1
  Li  Li83  1  0.50982736  0.68705864  0.16811128  1
  Li  Li84  1  0.00000000  0.00000000  0.76967649  1
  Li  Li85  1  0.50000000  0.50000000  0.23032351  1
  Li  Li86  1  0.00000000  0.00000000  0.23032351  1
  Li  Li87  1  0.50000000  0.50000000  0.76967649  1
  Li  Li88  1  0.00000000  0.00000000  0.00000000  1
  Li  Li89  1  0.50000000  0.50000000  -0.00000000  1
