# generated using pymatgen
data_LiCu3P2Se
_symmetry_space_group_name_H-M   'P 1'
_cell_length_a   3.75542451
_cell_length_b   4.11160197
_cell_length_c   5.48142210
_cell_angle_alpha   96.76198839
_cell_angle_beta   100.05469419
_cell_angle_gamma   105.91530190
_symmetry_Int_Tables_number   1
_chemical_formula_structural   LiCu3P2Se
_chemical_formula_sum   'Li1 Cu3 P2 Se1'
_cell_volume   78.90778239
_cell_formula_units_Z   1
loop_
 _symmetry_equiv_pos_site_id
 _symmetry_equiv_pos_as_xyz
  1  'x, y, z'
loop_
 _atom_site_type_symbol
 _atom_site_label
 _atom_site_symmetry_multiplicity
 _atom_site_fract_x
 _atom_site_fract_y
 _atom_site_fract_z
 _atom_site_occupancy
  Se  Se0  1  0.00000000  0.00000000  0.00000000  1
  Cu  Cu1  1  0.33300000  0.66700000  0.25000000  1
  Cu  Cu2  1  0.66700000  0.33300000  0.50000000  1
  Cu  Cu3  1  0.00000000  0.00000000  0.75000000  1
  P  P4  1  0.01661859  0.19810114  0.13151665  1
  P  P5  1  0.16431174  0.82047135  0.14224442  1
  Li  Li6  1  0.05329118  0.54930263  0.32907238  1
