# generated using pymatgen
data_Li2Cu3P2Se
_symmetry_space_group_name_H-M   'P 1'
_cell_length_a   4.94388775
_cell_length_b   5.11019742
_cell_length_c   6.58374493
_cell_angle_alpha   94.10552460
_cell_angle_beta   98.20081558
_cell_angle_gamma   105.23732150
_symmetry_Int_Tables_number   1
_chemical_formula_structural   Li2Cu3P2Se
_chemical_formula_sum   'Li2 Cu3 P2 Se1'
_cell_volume   157.80520685
_cell_formula_units_Z   1
loop_
 _symmetry_equiv_pos_site_id
 _symmetry_equiv_pos_as_xyz
  1  'x, y, z'
loop_
 _atom_site_type_symbol
 _atom_site_label
 _atom_site_symmetry_multiplicity
 _atom_site_fract_x
 _atom_site_fract_y
 _atom_site_fract_z
 _atom_site_occupancy
  Se  Se0  1  0.12500000  0.12500000  0.12500000  1
  Cu  Cu1  1  0.50000000  0.50000000  0.50000000  1
  Cu  Cu2  1  0.25000000  0.25000000  0.25000000  1
  Cu  Cu3  1  0.75000000  0.75000000  0.75000000  1
  P  P4  1  0.74081880  0.66227958  0.22374328  1
  P  P5  1  0.01042380  0.83619140  0.74282485  1
  Li  Li6  1  0.57299313  0.56053656  0.65930640  1
  Li  Li7  1  0.42383411  0.43531000  0.15394364  1
