# generated using pymatgen
data_LiF
_symmetry_space_group_name_H-M   'P 1'
_cell_length_a   12.91937547
_cell_length_b   12.91937547
_cell_length_c   2.95077940
_cell_angle_alpha   90.00000000
_cell_angle_beta   90.00000000
_cell_angle_gamma   120.00000000
_symmetry_Int_Tables_number   1
_chemical_formula_structural   LiF
_chemical_formula_sum   'Li20 F20'
_cell_volume   426.53081668
_cell_formula_units_Z   20
loop_
 _symmetry_equiv_pos_site_id
 _symmetry_equiv_pos_as_xyz
  1  'x, y, z'
loop_
 _atom_site_type_symbol
 _atom_site_label
 _atom_site_symmetry_multiplicity
 _atom_site_fract_x
 _atom_site_fract_y
 _atom_site_fract_z
 _atom_site_occupancy
  F  F0  1  0.64607697  0.38579273  0.75921865  1
  F  F1  1  0.61420727  0.26028423  0.75921865  1
  F  F2  1  0.73971577  0.35392303  0.75921865  1
  F  F3  1  0.61420727  0.35392303  0.24078135  1
  F  F4  1  0.73971577  0.38579273  0.24078135  1
  F  F5  1  0.64607697  0.26028423  0.24078135  1
  F  F6  1  0.00000000  0.00000000  0.50000000  1
  F  F7  1  0.85376279  0.14623721  0.50000000  1
  F  F8  1  0.85376279  0.70752557  0.50000000  1
  F  F9  1  0.29247443  0.14623721  0.50000000  1
  F  F10  1  0.46689849  0.76979062  0.69792103  1
  F  F11  1  0.23020938  0.69710787  0.69792103  1
  F  F12  1  0.30289213  0.53310151  0.69792103  1
  F  F13  1  0.23020938  0.53310151  0.30207897  1
  F  F14  1  0.30289213  0.76979062  0.30207897  1
  F  F15  1  0.46689849  0.69710787  0.30207897  1
  F  F16  1  0.74574206  0.25425794  0.00000000  1
  F  F17  1  0.74574206  0.49148411  0.00000000  1
  F  F18  1  0.50851589  0.25425794  0.00000000  1
  F  F19  1  0.00000000  0.00000000  0.00000000  1
  Li  Li20  1  0.33333333  0.66666667  0.50000000  1
  Li  Li21  1  0.12892317  0.34564547  0.35602888  1
  Li  Li22  1  -0.34564547  -0.21672230  0.35602888  1
  Li  Li23  1  0.21672230  -0.12892317  0.35602888  1
  Li  Li24  1  -0.34564547  -0.12892317  -0.35602888  1
  Li  Li25  1  0.21672230  0.34564547  -0.35602888  1
  Li  Li26  1  0.12892317  -0.21672230  -0.35602888  1
  Li  Li27  1  0.47090399  0.09210115  0.16115046  1
  Li  Li28  1  0.90789885  0.37880284  0.16115046  1
  Li  Li29  1  0.62119716  0.52909601  0.16115046  1
  Li  Li30  1  0.90789885  0.52909601  0.83884954  1
  Li  Li31  1  0.62119716  0.09210115  0.83884954  1
  Li  Li32  1  0.47090399  0.37880284  0.83884954  1
  Li  Li33  1  0.78003173  0.04790810  0.12949779  1
  Li  Li34  1  0.95209190  0.73212363  0.12949779  1
  Li  Li35  1  0.26787637  0.21996827  0.12949779  1
  Li  Li36  1  0.95209190  0.21996827  0.87050221  1
  Li  Li37  1  0.26787637  0.04790810  0.87050221  1
  Li  Li38  1  0.78003173  0.73212363  0.87050221  1
  Li  Li39  1  0.66666667  0.33333333  0.00000000  1
