# generated using pymatgen
data_LiF
_symmetry_space_group_name_H-M   'P 1'
_cell_length_a   5.87724689
_cell_length_b   5.87724689
_cell_length_c   16.73123876
_cell_angle_alpha   90.00000000
_cell_angle_beta   90.00000000
_cell_angle_gamma   90.00000000
_symmetry_Int_Tables_number   1
_chemical_formula_structural   LiF
_chemical_formula_sum   'Li25 F25'
_cell_volume   577.93096749
_cell_formula_units_Z   25
loop_
 _symmetry_equiv_pos_site_id
 _symmetry_equiv_pos_as_xyz
  1  'x, y, z'
loop_
 _atom_site_type_symbol
 _atom_site_label
 _atom_site_symmetry_multiplicity
 _atom_site_fract_x
 _atom_site_fract_y
 _atom_site_fract_z
 _atom_site_occupancy
  F  F0  1  0.00000000  0.50000000  0.82989481  1
  F  F1  1  0.50000000  -0.00000000  0.82989481  1
  F  F2  1  0.00000000  0.50000000  0.17010519  1
  F  F3  1  0.50000000  -0.00000000  0.17010519  1
  F  F4  1  0.84426247  0.84426247  0.50000000  1
  F  F5  1  0.15573753  0.15573753  0.50000000  1
  F  F6  1  0.15573753  0.84426247  0.50000000  1
  F  F7  1  0.84426247  0.15573753  0.50000000  1
  F  F8  1  0.16795173  0.42013662  0.12109271  1
  F  F9  1  -0.16795173  -0.42013662  0.12109271  1
  F  F10  1  -0.42013662  0.16795173  0.12109271  1
  F  F11  1  0.42013662  -0.16795173  0.12109271  1
  F  F12  1  -0.16795173  0.42013662  -0.12109271  1
  F  F13  1  0.16795173  -0.42013662  -0.12109271  1
  F  F14  1  0.42013662  0.16795173  -0.12109271  1
  F  F15  1  -0.42013662  -0.16795173  -0.12109271  1
  F  F16  1  -0.16795173  -0.42013662  -0.12109271  1
  F  F17  1  0.16795173  0.42013662  -0.12109271  1
  F  F18  1  0.42013662  -0.16795173  -0.12109271  1
  F  F19  1  -0.42013662  0.16795173  -0.12109271  1
  F  F20  1  0.16795173  -0.42013662  0.12109271  1
  F  F21  1  -0.16795173  0.42013662  0.12109271  1
  F  F22  1  -0.42013662  -0.16795173  0.12109271  1
  F  F23  1  0.42013662  0.16795173  0.12109271  1
  F  F24  1  0.50000000  0.50000000  -0.00000000  1
  Li  Li25  1  0.71238077  0.71238077  0.59216798  1
  Li  Li26  1  0.28761923  0.28761923  0.59216798  1
  Li  Li27  1  0.28761923  0.71238077  0.59216798  1
  Li  Li28  1  0.71238077  0.28761923  0.59216798  1
  Li  Li29  1  0.28761923  0.71238077  0.40783202  1
  Li  Li30  1  0.71238077  0.28761923  0.40783202  1
  Li  Li31  1  0.71238077  0.71238077  0.40783202  1
  Li  Li32  1  0.28761923  0.28761923  0.40783202  1
  Li  Li33  1  0.00000000  0.00000000  0.00000000  1
  Li  Li34  1  0.30164680  0.50000000  0.71561548  1
  Li  Li35  1  0.69835320  0.50000000  0.71561548  1
  Li  Li36  1  0.50000000  0.30164680  0.71561548  1
  Li  Li37  1  0.50000000  0.69835320  0.71561548  1
  Li  Li38  1  0.69835320  0.50000000  0.28438452  1
  Li  Li39  1  0.30164680  0.50000000  0.28438452  1
  Li  Li40  1  0.50000000  0.30164680  0.28438452  1
  Li  Li41  1  0.50000000  0.69835320  0.28438452  1
  Li  Li42  1  0.68165619  0.00000000  0.00000000  1
  Li  Li43  1  0.31834381  0.00000000  -0.00000000  1
  Li  Li44  1  0.00000000  0.68165619  0.00000000  1
  Li  Li45  1  0.00000000  0.31834381  0.00000000  1
  Li  Li46  1  0.00000000  0.50000000  0.05159556  1
  Li  Li47  1  0.50000000  -0.00000000  0.05159556  1
  Li  Li48  1  0.00000000  0.50000000  0.94840444  1
  Li  Li49  1  0.50000000  -0.00000000  0.94840444  1
