# generated using pymatgen
data_LiF
_symmetry_space_group_name_H-M   'P 1'
_cell_length_a   14.73339436
_cell_length_b   14.73339436
_cell_length_c   5.81848088
_cell_angle_alpha   90.00000000
_cell_angle_beta   90.00000000
_cell_angle_gamma   90.00000000
_symmetry_Int_Tables_number   1
_chemical_formula_structural   LiF
_chemical_formula_sum   'Li50 F50'
_cell_volume   1263.03457155
_cell_formula_units_Z   50
loop_
 _symmetry_equiv_pos_site_id
 _symmetry_equiv_pos_as_xyz
  1  'x, y, z'
loop_
 _atom_site_type_symbol
 _atom_site_label
 _atom_site_symmetry_multiplicity
 _atom_site_fract_x
 _atom_site_fract_y
 _atom_site_fract_z
 _atom_site_occupancy
  F  F0  1  0.92416805  0.92416805  0.90282227  1
  F  F1  1  0.07583195  0.07583195  0.90282227  1
  F  F2  1  0.07583195  0.92416805  0.90282227  1
  F  F3  1  0.92416805  0.07583195  0.90282227  1
  F  F4  1  0.07583195  0.92416805  0.09717773  1
  F  F5  1  0.92416805  0.07583195  0.09717773  1
  F  F6  1  0.92416805  0.92416805  0.09717773  1
  F  F7  1  0.07583195  0.07583195  0.09717773  1
  F  F8  1  0.94377473  0.83428252  0.50000000  1
  F  F9  1  0.05622527  0.16571748  0.50000000  1
  F  F10  1  0.16571748  0.94377473  0.50000000  1
  F  F11  1  0.83428252  0.05622527  0.50000000  1
  F  F12  1  0.05622527  0.83428252  0.50000000  1
  F  F13  1  0.94377473  0.16571748  0.50000000  1
  F  F14  1  0.83428252  0.94377473  0.50000000  1
  F  F15  1  0.16571748  0.05622527  0.50000000  1
  F  F16  1  0.50000000  0.50000000  0.50000000  1
  F  F17  1  0.00000000  0.50000000  0.50000000  1
  F  F18  1  0.50000000  0.00000000  0.50000000  1
  F  F19  1  0.05466791  0.39111677  0.86419183  1
  F  F20  1  0.94533209  0.60888323  0.86419183  1
  F  F21  1  0.60888323  0.05466791  0.86419183  1
  F  F22  1  0.39111677  0.94533209  0.86419183  1
  F  F23  1  0.94533209  0.39111677  0.13580817  1
  F  F24  1  0.05466791  0.60888323  0.13580817  1
  F  F25  1  0.39111677  0.05466791  0.13580817  1
  F  F26  1  0.60888323  0.94533209  0.13580817  1
  F  F27  1  0.94533209  0.60888323  0.13580817  1
  F  F28  1  0.05466791  0.39111677  0.13580817  1
  F  F29  1  0.39111677  0.94533209  0.13580817  1
  F  F30  1  0.60888323  0.05466791  0.13580817  1
  F  F31  1  0.05466791  0.60888323  0.86419183  1
  F  F32  1  0.94533209  0.39111677  0.86419183  1
  F  F33  1  0.60888323  0.94533209  0.86419183  1
  F  F34  1  0.39111677  0.05466791  0.86419183  1
  F  F35  1  0.27230472  0.27230472  0.34499758  1
  F  F36  1  0.72769528  0.72769528  0.34499758  1
  F  F37  1  0.72769528  0.27230472  0.34499758  1
  F  F38  1  0.27230472  0.72769528  0.34499758  1
  F  F39  1  0.72769528  0.27230472  0.65500242  1
  F  F40  1  0.27230472  0.72769528  0.65500242  1
  F  F41  1  0.27230472  0.27230472  0.65500242  1
  F  F42  1  0.72769528  0.72769528  0.65500242  1
  F  F43  1  0.97163042  -0.00000000  0.50000000  1
  F  F44  1  0.02836958  -0.00000000  0.50000000  1
  F  F45  1  0.00000000  0.97163042  0.50000000  1
  F  F46  1  0.00000000  0.02836958  0.50000000  1
  F  F47  1  0.00000000  0.00000000  0.78276427  1
  F  F48  1  0.00000000  0.00000000  0.21723573  1
  F  F49  1  0.50000000  0.50000000  -0.00000000  1
  Li  Li50  1  0.17866502  0.50000000  0.50000000  1
  Li  Li51  1  0.82133498  0.50000000  0.50000000  1
  Li  Li52  1  0.50000000  0.17866502  0.50000000  1
  Li  Li53  1  0.50000000  0.82133498  0.50000000  1
  Li  Li54  1  0.63182606  0.14609115  0.32062384  1
  Li  Li55  1  -0.63182606  -0.14609115  0.32062384  1
  Li  Li56  1  -0.14609115  0.63182606  0.32062384  1
  Li  Li57  1  0.14609115  -0.63182606  0.32062384  1
  Li  Li58  1  -0.63182606  0.14609115  -0.32062384  1
  Li  Li59  1  0.63182606  -0.14609115  -0.32062384  1
  Li  Li60  1  0.14609115  0.63182606  -0.32062384  1
  Li  Li61  1  -0.14609115  -0.63182606  -0.32062384  1
  Li  Li62  1  -0.63182606  -0.14609115  -0.32062384  1
  Li  Li63  1  0.63182606  0.14609115  -0.32062384  1
  Li  Li64  1  0.14609115  -0.63182606  -0.32062384  1
  Li  Li65  1  -0.14609115  0.63182606  -0.32062384  1
  Li  Li66  1  0.63182606  -0.14609115  0.32062384  1
  Li  Li67  1  -0.63182606  0.14609115  0.32062384  1
  Li  Li68  1  -0.14609115  -0.63182606  0.32062384  1
  Li  Li69  1  0.14609115  0.63182606  0.32062384  1
  Li  Li70  1  0.58695084  0.00000000  -0.00000000  1
  Li  Li71  1  0.41304916  0.00000000  0.00000000  1
  Li  Li72  1  0.00000000  0.58695084  -0.00000000  1
  Li  Li73  1  0.00000000  0.41304916  0.00000000  1
  Li  Li74  1  0.23235973  0.50000000  0.20205448  1
  Li  Li75  1  0.76764027  0.50000000  0.20205448  1
  Li  Li76  1  0.50000000  0.23235973  0.20205448  1
  Li  Li77  1  0.50000000  0.76764027  0.20205448  1
  Li  Li78  1  0.76764027  0.50000000  0.79794552  1
  Li  Li79  1  0.23235973  0.50000000  0.79794552  1
  Li  Li80  1  0.50000000  0.23235973  0.79794552  1
  Li  Li81  1  0.50000000  0.76764027  0.79794552  1
  Li  Li82  1  0.68165028  0.68165028  0.88847031  1
  Li  Li83  1  0.31834972  0.31834972  0.88847031  1
  Li  Li84  1  0.31834972  0.68165028  0.88847031  1
  Li  Li85  1  0.68165028  0.31834972  0.88847031  1
  Li  Li86  1  0.31834972  0.68165028  0.11152969  1
  Li  Li87  1  0.68165028  0.31834972  0.11152969  1
  Li  Li88  1  0.68165028  0.68165028  0.11152969  1
  Li  Li89  1  0.31834972  0.31834972  0.11152969  1
  Li  Li90  1  0.00000000  0.50000000  -0.00000000  1
  Li  Li91  1  0.50000000  0.00000000  -0.00000000  1
  Li  Li92  1  0.71332218  0.50000000  0.50000000  1
  Li  Li93  1  0.28667782  0.50000000  0.50000000  1
  Li  Li94  1  0.50000000  0.71332218  0.50000000  1
  Li  Li95  1  0.50000000  0.28667782  0.50000000  1
  Li  Li96  1  0.57379334  0.00000000  0.50000000  1
  Li  Li97  1  0.42620666  -0.00000000  0.50000000  1
  Li  Li98  1  0.00000000  0.57379334  0.50000000  1
  Li  Li99  1  0.00000000  0.42620666  0.50000000  1
