# generated using pymatgen
data_Li3Y2P3Se
_symmetry_space_group_name_H-M   'P 1'
_cell_length_a   5.18266590
_cell_length_b   5.38643804
_cell_length_c   7.05730361
_cell_angle_alpha   94.31225696
_cell_angle_beta   99.12283890
_cell_angle_gamma   106.89976242
_symmetry_Int_Tables_number   1
_chemical_formula_structural   Li3Y2P3Se
_chemical_formula_sum   'Li3 Y2 P3 Se1'
_cell_volume   184.57982883
_cell_formula_units_Z   1
loop_
 _symmetry_equiv_pos_site_id
 _symmetry_equiv_pos_as_xyz
  1  'x, y, z'
loop_
 _atom_site_type_symbol
 _atom_site_label
 _atom_site_symmetry_multiplicity
 _atom_site_fract_x
 _atom_site_fract_y
 _atom_site_fract_z
 _atom_site_occupancy
  Se  Se0  1  0.00000000  0.00000000  0.00000000  1
  Y  Y1  1  0.33300000  0.66700000  0.25000000  1
  Y  Y2  1  0.66700000  0.33300000  0.50000000  1
  P  P3  1  0.00000000  0.00000000  0.75000000  1
  P  P4  1  0.78794085  0.94474457  0.29872969  1
  P  P5  1  0.15797523  0.31408883  0.76619226  1
  Li  Li6  1  0.79546794  0.32711384  0.38056538  1
  Li  Li7  1  0.99973519  0.84937422  0.29151877  1
  Li  Li8  1  0.65107517  0.16257053  0.11228087  1
