# generated using pymatgen
data_Li3AlOF
_symmetry_space_group_name_H-M   'P 1'
_cell_length_a   3.16660511
_cell_length_b   2.65399241
_cell_length_c   6.38055199
_cell_angle_alpha   111.17719685
_cell_angle_beta   105.58269062
_cell_angle_gamma   97.59402837
_symmetry_Int_Tables_number   1
_chemical_formula_structural   Li3AlOF
_chemical_formula_sum   'Li3 Al1 O1 F1'
_cell_volume   46.56945233
_cell_formula_units_Z   1
loop_
 _symmetry_equiv_pos_site_id
 _symmetry_equiv_pos_as_xyz
  1  'x, y, z'
loop_
 _atom_site_type_symbol
 _atom_site_label
 _atom_site_symmetry_multiplicity
 _atom_site_fract_x
 _atom_site_fract_y
 _atom_site_fract_z
 _atom_site_occupancy
  F  F0  1  0.00000000  0.00000000  0.00000000  1
  Al  Al1  1  0.33300000  0.66700000  0.25000000  1
  Li  Li2  1  0.66700000  0.33300000  0.50000000  1
  Li  Li3  1  0.00000000  0.00000000  0.75000000  1
  Li  Li4  1  0.98649645  0.59505281  0.84908810  1
  O  O5  1  0.97754804  0.25860598  0.00662211  1
