# generated using pymatgen
data_LiF
_symmetry_space_group_name_H-M   'P 1'
_cell_length_a   7.61562771
_cell_length_b   7.61562771
_cell_length_c   6.15780273
_cell_angle_alpha   90.00000000
_cell_angle_beta   90.00000000
_cell_angle_gamma   120.00000000
_symmetry_Int_Tables_number   1
_chemical_formula_structural   LiF
_chemical_formula_sum   'Li14 F14'
_cell_volume   309.29137914
_cell_formula_units_Z   14
loop_
 _symmetry_equiv_pos_site_id
 _symmetry_equiv_pos_as_xyz
  1  'x, y, z'
loop_
 _atom_site_type_symbol
 _atom_site_label
 _atom_site_symmetry_multiplicity
 _atom_site_fract_x
 _atom_site_fract_y
 _atom_site_fract_z
 _atom_site_occupancy
  F  F0  1  0.61979717  0.72097891  0.16500083  1
  F  F1  1  0.27902109  0.89881827  0.16500083  1
  F  F2  1  0.10118173  0.38020283  0.16500083  1
  F  F3  1  0.27902109  0.38020283  0.83499917  1
  F  F4  1  0.10118173  0.72097891  0.83499917  1
  F  F5  1  0.61979717  0.89881827  0.83499917  1
  F  F6  1  0.74522187  0.25477813  0.50000000  1
  F  F7  1  0.74522187  0.49044374  0.50000000  1
  F  F8  1  0.50955626  0.25477813  0.50000000  1
  F  F9  1  0.33333333  0.66666667  0.09726678  1
  F  F10  1  0.33333333  0.66666667  0.90273322  1
  F  F11  1  0.39266367  0.60733633  0.50000000  1
  F  F12  1  0.39266367  0.78532734  0.50000000  1
  F  F13  1  0.21467266  0.60733633  0.50000000  1
  Li  Li14  1  0.66666667  0.33333333  0.00000000  1
  Li  Li15  1  0.84785809  0.15214191  0.00000000  1
  Li  Li16  1  0.84785809  0.69571618  0.00000000  1
  Li  Li17  1  0.30428382  0.15214191  0.00000000  1
  Li  Li18  1  0.00000000  0.00000000  0.00000000  1
  Li  Li19  1  0.22337954  0.23712381  0.22373753  1
  Li  Li20  1  -0.23712381  -0.01374427  0.22373753  1
  Li  Li21  1  0.01374427  -0.22337954  0.22373753  1
  Li  Li22  1  -0.23712381  -0.22337954  -0.22373753  1
  Li  Li23  1  0.01374427  0.23712381  -0.22373753  1
  Li  Li24  1  0.22337954  -0.01374427  -0.22373753  1
  Li  Li25  1  0.08575297  0.91424703  0.50000000  1
  Li  Li26  1  0.08575297  0.17150595  0.50000000  1
  Li  Li27  1  0.82849405  0.91424703  0.50000000  1
