# generated using pymatgen
data_LiYMoP
_symmetry_space_group_name_H-M   'P 1'
_cell_length_a   5.03085909
_cell_length_b   5.17859515
_cell_length_c   6.85921332
_cell_angle_alpha   94.13028712
_cell_angle_beta   99.28353805
_cell_angle_gamma   106.93822769
_symmetry_Int_Tables_number   1
_chemical_formula_structural   LiYMoP
_chemical_formula_sum   'Li2 Y2 Mo2 P2'
_cell_volume   167.36419973
_cell_formula_units_Z   2
loop_
 _symmetry_equiv_pos_site_id
 _symmetry_equiv_pos_as_xyz
  1  'x, y, z'
loop_
 _atom_site_type_symbol
 _atom_site_label
 _atom_site_symmetry_multiplicity
 _atom_site_fract_x
 _atom_site_fract_y
 _atom_site_fract_z
 _atom_site_occupancy
  Y  Y0  1  0.00000000  0.00000000  0.00000000  1
  Y  Y1  1  0.50000000  0.50000000  0.50000000  1
  P  P2  1  0.25000000  0.25000000  0.25000000  1
  P  P3  1  0.75000000  0.25000000  0.00000000  1
  Mo  Mo4  1  0.25000000  0.75000000  0.50000000  1
  Mo  Mo5  1  0.58513928  0.65548736  0.12405994  1
  Li  Li6  1  0.45997003  0.02663779  0.87103732  1
  Li  Li7  1  0.85128996  0.53744217  0.75394011  1
