# generated using pymatgen
data_LiF
_symmetry_space_group_name_H-M   'P 1'
_cell_length_a   10.89069584
_cell_length_b   10.89069584
_cell_length_c   13.31277786
_cell_angle_alpha   90.00000000
_cell_angle_beta   90.00000000
_cell_angle_gamma   90.00000000
_symmetry_Int_Tables_number   1
_chemical_formula_structural   LiF
_chemical_formula_sum   'Li64 F64'
_cell_volume   1578.99205089
_cell_formula_units_Z   64
loop_
 _symmetry_equiv_pos_site_id
 _symmetry_equiv_pos_as_xyz
  1  'x, y, z'
loop_
 _atom_site_type_symbol
 _atom_site_label
 _atom_site_symmetry_multiplicity
 _atom_site_fract_x
 _atom_site_fract_y
 _atom_site_fract_z
 _atom_site_occupancy
  F  F0  1  0.17385502  0.42385502  0.12500000  1
  F  F1  1  0.32614498  0.57614498  0.62500000  1
  F  F2  1  0.82614498  0.92385502  0.37500000  1
  F  F3  1  0.67385502  0.07614498  0.87500000  1
  F  F4  1  0.82614498  0.57614498  0.87500000  1
  F  F5  1  0.67385502  0.42385502  0.37500000  1
  F  F6  1  0.17385502  0.07614498  0.62500000  1
  F  F7  1  0.32614498  0.92385502  0.12500000  1
  F  F8  1  0.67385502  0.92385502  0.62500000  1
  F  F9  1  0.82614498  0.07614498  0.12500000  1
  F  F10  1  0.32614498  0.42385502  0.87500000  1
  F  F11  1  0.17385502  0.57614498  0.37500000  1
  F  F12  1  0.32614498  0.07614498  0.37500000  1
  F  F13  1  0.17385502  0.92385502  0.87500000  1
  F  F14  1  0.67385502  0.57614498  0.12500000  1
  F  F15  1  0.82614498  0.42385502  0.62500000  1
  F  F16  1  0.00000000  0.25000000  0.37500000  1
  F  F17  1  0.00000000  0.75000000  0.62500000  1
  F  F18  1  0.50000000  0.25000000  0.62500000  1
  F  F19  1  0.50000000  0.75000000  0.37500000  1
  F  F20  1  0.50000000  0.75000000  0.87500000  1
  F  F21  1  0.50000000  0.25000000  0.12500000  1
  F  F22  1  0.00000000  0.75000000  0.12500000  1
  F  F23  1  0.00000000  0.25000000  0.87500000  1
  F  F24  1  0.67661610  0.26406006  0.33472929  1
  F  F25  1  0.82338390  0.73593994  0.83472929  1
  F  F26  1  0.98593994  0.42661610  0.58472929  1
  F  F27  1  0.51406006  0.57338390  0.08472929  1
  F  F28  1  0.82338390  0.26406006  0.66527071  1
  F  F29  1  0.67661610  0.73593994  0.16527071  1
  F  F30  1  0.51406006  0.42661610  0.41527071  1
  F  F31  1  0.98593994  0.57338390  0.91527071  1
  F  F32  1  0.32338390  0.73593994  0.66527071  1
  F  F33  1  0.17661610  0.26406006  0.16527071  1
  F  F34  1  0.01406006  0.57338390  0.41527071  1
  F  F35  1  0.48593994  0.42661610  0.91527071  1
  F  F36  1  0.17661610  0.73593994  0.33472929  1
  F  F37  1  0.32338390  0.26406006  0.83472929  1
  F  F38  1  0.48593994  0.57338390  0.58472929  1
  F  F39  1  0.01406006  0.42661610  0.08472929  1
  F  F40  1  0.17661610  0.76406006  0.83472929  1
  F  F41  1  0.32338390  0.23593994  0.33472929  1
  F  F42  1  0.48593994  0.92661610  0.08472929  1
  F  F43  1  0.01406006  0.07338390  0.58472929  1
  F  F44  1  0.32338390  0.76406006  0.16527071  1
  F  F45  1  0.17661610  0.23593994  0.66527071  1
  F  F46  1  0.01406006  0.92661610  0.91527071  1
  F  F47  1  0.48593994  0.07338390  0.41527071  1
  F  F48  1  0.82338390  0.23593994  0.16527071  1
  F  F49  1  0.67661610  0.76406006  0.66527071  1
  F  F50  1  0.51406006  0.07338390  0.91527071  1
  F  F51  1  0.98593994  0.92661610  0.41527071  1
  F  F52  1  0.67661610  0.23593994  0.83472929  1
  F  F53  1  0.82338390  0.76406006  0.33472929  1
  F  F54  1  0.98593994  0.07338390  0.08472929  1
  F  F55  1  0.51406006  0.92661610  0.58472929  1
  F  F56  1  0.00000000  0.25000000  0.12500000  1
  F  F57  1  0.00000000  0.75000000  0.37500000  1
  F  F58  1  0.00000000  0.75000000  0.87500000  1
  F  F59  1  0.00000000  0.25000000  0.62500000  1
  F  F60  1  0.50000000  0.75000000  0.62500000  1
  F  F61  1  0.50000000  0.25000000  0.87500000  1
  F  F62  1  0.50000000  0.25000000  0.37500000  1
  F  F63  1  0.50000000  0.75000000  0.12500000  1
  Li  Li64  1  0.34509746  -0.00000000  0.25000000  1
  Li  Li65  1  0.15490254  -0.00000000  0.75000000  1
  Li  Li66  1  0.25000000  0.09509746  0.50000000  1
  Li  Li67  1  0.25000000  0.90490254  -0.00000000  1
  Li  Li68  1  0.65490254  -0.00000000  0.75000000  1
  Li  Li69  1  0.84509746  -0.00000000  0.25000000  1
  Li  Li70  1  0.75000000  0.90490254  0.50000000  1
  Li  Li71  1  0.75000000  0.09509746  0.00000000  1
  Li  Li72  1  0.84509746  0.50000000  0.75000000  1
  Li  Li73  1  0.65490254  0.50000000  0.25000000  1
  Li  Li74  1  0.75000000  0.59509746  0.00000000  1
  Li  Li75  1  0.75000000  0.40490254  0.50000000  1
  Li  Li76  1  0.15490254  0.50000000  0.25000000  1
  Li  Li77  1  0.34509746  0.50000000  0.75000000  1
  Li  Li78  1  0.25000000  0.40490254  -0.00000000  1
  Li  Li79  1  0.25000000  0.59509746  0.50000000  1
  Li  Li80  1  0.37857291  0.57355915  0.28143688  1
  Li  Li81  1  0.12142709  -0.57355915  0.78143688  1
  Li  Li82  1  -0.32355915  1.12857291  0.53143688  1
  Li  Li83  1  0.82355915  -0.12857291  1.03143688  1
  Li  Li84  1  0.12142709  0.57355915  -0.28143688  1
  Li  Li85  1  0.37857291  -0.57355915  0.21856312  1
  Li  Li86  1  0.82355915  1.12857291  0.46856312  1
  Li  Li87  1  -0.32355915  -0.12857291  -0.03143688  1
  Li  Li88  1  -0.37857291  -0.57355915  -0.28143688  1
  Li  Li89  1  0.87857291  0.57355915  0.21856312  1
  Li  Li90  1  1.32355915  -0.12857291  0.46856312  1
  Li  Li91  1  0.17644085  1.12857291  -0.03143688  1
  Li  Li92  1  0.87857291  -0.57355915  0.28143688  1
  Li  Li93  1  -0.37857291  0.57355915  0.78143688  1
  Li  Li94  1  0.17644085  -0.12857291  0.53143688  1
  Li  Li95  1  1.32355915  1.12857291  1.03143688  1
  Li  Li96  1  0.87857291  1.07355915  0.78143688  1
  Li  Li97  1  0.62142709  -0.07355915  1.28143688  1
  Li  Li98  1  0.17644085  1.62857291  1.03143688  1
  Li  Li99  1  1.32355915  0.37142709  1.53143688  1
  Li  Li100  1  0.62142709  1.07355915  0.21856312  1
  Li  Li101  1  0.87857291  -0.07355915  0.71856312  1
  Li  Li102  1  1.32355915  1.62857291  0.96856312  1
  Li  Li103  1  0.17644085  0.37142709  0.46856312  1
  Li  Li104  1  0.12142709  -0.07355915  0.21856312  1
  Li  Li105  1  1.37857291  1.07355915  0.71856312  1
  Li  Li106  1  1.82355915  0.37142709  0.96856312  1
  Li  Li107  1  0.67644085  1.62857291  0.46856312  1
  Li  Li108  1  1.37857291  -0.07355915  0.78143688  1
  Li  Li109  1  0.12142709  1.07355915  1.28143688  1
  Li  Li110  1  0.67644085  0.37142709  1.03143688  1
  Li  Li111  1  1.82355915  1.62857291  1.53143688  1
  Li  Li112  1  0.00000000  0.25000000  0.47571025  1
  Li  Li113  1  0.00000000  0.75000000  0.72571025  1
  Li  Li114  1  0.50000000  0.25000000  0.52428975  1
  Li  Li115  1  0.50000000  0.75000000  0.27428975  1
  Li  Li116  1  0.00000000  0.75000000  0.52428975  1
  Li  Li117  1  0.00000000  0.25000000  0.27428975  1
  Li  Li118  1  0.50000000  0.75000000  0.47571025  1
  Li  Li119  1  0.50000000  0.25000000  0.72571025  1
  Li  Li120  1  0.50000000  0.75000000  0.97571025  1
  Li  Li121  1  0.50000000  0.25000000  0.22571025  1
  Li  Li122  1  0.00000000  0.75000000  0.02428975  1
  Li  Li123  1  0.00000000  0.25000000  0.77428975  1
  Li  Li124  1  0.50000000  0.25000000  0.02428975  1
  Li  Li125  1  0.50000000  0.75000000  0.77428975  1
  Li  Li126  1  0.00000000  0.25000000  0.97571025  1
  Li  Li127  1  0.00000000  0.75000000  0.22571025  1
