# generated using pymatgen
data_Li2Y2As4P2Se
_symmetry_space_group_name_H-M   'P 1'
_cell_length_a   5.50322260
_cell_length_b   5.66887953
_cell_length_c   6.84472876
_cell_angle_alpha   93.42415350
_cell_angle_beta   95.89011785
_cell_angle_gamma   101.29602968
_symmetry_Int_Tables_number   1
_chemical_formula_structural   Li2Y2As4P2Se
_chemical_formula_sum   'Li2 Y2 As4 P2 Se1'
_cell_volume   207.59496724
_cell_formula_units_Z   1
loop_
 _symmetry_equiv_pos_site_id
 _symmetry_equiv_pos_as_xyz
  1  'x, y, z'
loop_
 _atom_site_type_symbol
 _atom_site_label
 _atom_site_symmetry_multiplicity
 _atom_site_fract_x
 _atom_site_fract_y
 _atom_site_fract_z
 _atom_site_occupancy
  Se  Se0  1  0.00000000  0.00000000  0.00000000  1
  P  P1  1  0.50000000  0.50000000  0.50000000  1
  P  P2  1  0.50000000  0.50000000  0.00000000  1
  As  As3  1  0.50000000  0.00000000  0.50000000  1
  As  As4  1  0.00000000  0.50000000  0.50000000  1
  As  As5  1  0.39945433  0.41361459  0.45794386  1
  As  As6  1  0.32782277  0.37868221  0.10638426  1
  Li  Li7  1  0.54339044  0.36588884  0.41712212  1
  Li  Li8  1  0.31944265  0.84658183  0.28019740  1
  Y  Y9  1  0.49560614  0.55539392  0.16579430  1
  Y  Y10  1  0.64120834  0.45913618  0.13152688  1
