# generated using pymatgen
data_LiF
_symmetry_space_group_name_H-M   'P 1'
_cell_length_a   6.27163483
_cell_length_b   5.04582595
_cell_length_c   10.01670472
_cell_angle_alpha   90.00000000
_cell_angle_beta   90.00000000
_cell_angle_gamma   90.00000000
_symmetry_Int_Tables_number   1
_chemical_formula_structural   LiF
_chemical_formula_sum   'Li24 F24'
_cell_volume   316.98440793
_cell_formula_units_Z   24
loop_
 _symmetry_equiv_pos_site_id
 _symmetry_equiv_pos_as_xyz
  1  'x, y, z'
loop_
 _atom_site_type_symbol
 _atom_site_label
 _atom_site_symmetry_multiplicity
 _atom_site_fract_x
 _atom_site_fract_y
 _atom_site_fract_z
 _atom_site_occupancy
  F  F0  1  0.93537758  0.25000000  0.67484384  1
  F  F1  1  0.56462242  0.75000000  0.17484384  1
  F  F2  1  0.06462242  0.75000000  0.32515616  1
  F  F3  1  0.43537758  0.25000000  0.82515616  1
  F  F4  1  0.43906728  0.14238825  0.55637624  1
  F  F5  1  0.06093272  -0.14238825  1.05637624  1
  F  F6  1  -0.43906728  0.64238825  -0.55637624  1
  F  F7  1  0.93906728  0.35761175  -0.05637624  1
  F  F8  1  -0.43906728  -0.14238825  -0.55637624  1
  F  F9  1  0.93906728  0.14238825  -0.05637624  1
  F  F10  1  0.43906728  0.35761175  0.55637624  1
  F  F11  1  0.06093272  0.64238825  1.05637624  1
  F  F12  1  0.87972505  0.51479807  0.56496973  1
  F  F13  1  0.62027495  0.48520193  0.06496973  1
  F  F14  1  0.12027495  0.01479807  0.43503027  1
  F  F15  1  0.37972505  0.98520193  0.93503027  1
  F  F16  1  0.12027495  0.48520193  0.43503027  1
  F  F17  1  0.37972505  0.51479807  0.93503027  1
  F  F18  1  0.87972505  0.98520193  0.56496973  1
  F  F19  1  0.62027495  0.01479807  0.06496973  1
  F  F20  1  0.09749077  0.25000000  0.38741690  1
  F  F21  1  0.40250923  0.75000000  0.88741690  1
  F  F22  1  0.90250923  0.75000000  0.61258310  1
  F  F23  1  0.59749077  0.25000000  0.11258310  1
  Li  Li24  1  0.00000000  0.00000000  0.00000000  1
  Li  Li25  1  0.50000000  -0.00000000  0.50000000  1
  Li  Li26  1  0.00000000  0.50000000  0.00000000  1
  Li  Li27  1  0.50000000  0.50000000  0.50000000  1
  Li  Li28  1  0.06290254  0.25000000  0.11965428  1
  Li  Li29  1  0.43709746  0.75000000  0.61965428  1
  Li  Li30  1  0.93709746  0.75000000  0.88034572  1
  Li  Li31  1  0.56290254  0.25000000  0.38034572  1
  Li  Li32  1  0.75691993  0.25000000  0.32761159  1
  Li  Li33  1  0.74308007  0.75000000  0.82761159  1
  Li  Li34  1  0.24308007  0.75000000  0.67238841  1
  Li  Li35  1  0.25691993  0.25000000  0.17238841  1
  Li  Li36  1  0.19268938  0.25000000  0.78455929  1
  Li  Li37  1  0.30731062  0.75000000  0.28455929  1
  Li  Li38  1  0.80731062  0.75000000  0.21544071  1
  Li  Li39  1  0.69268938  0.25000000  0.71544071  1
  Li  Li40  1  0.09733369  0.25000000  0.49217117  1
  Li  Li41  1  0.40266631  0.75000000  0.99217117  1
  Li  Li42  1  0.90266631  0.75000000  0.50782883  1
  Li  Li43  1  0.59733369  0.25000000  0.00782883  1
  Li  Li44  1  0.00000000  0.00000000  0.50000000  1
  Li  Li45  1  0.50000000  -0.00000000  -0.00000000  1
  Li  Li46  1  0.00000000  0.50000000  0.50000000  1
  Li  Li47  1  0.50000000  0.50000000  -0.00000000  1
