# generated using pymatgen
data_LiF
_symmetry_space_group_name_H-M   'P 1'
_cell_length_a   9.76764211
_cell_length_b   8.75137450
_cell_length_c   9.00563983
_cell_angle_alpha   90.00000000
_cell_angle_beta   90.00000000
_cell_angle_gamma   90.00000000
_symmetry_Int_Tables_number   1
_chemical_formula_structural   LiF
_chemical_formula_sum   'Li22 F22'
_cell_volume   769.80474076
_cell_formula_units_Z   22
loop_
 _symmetry_equiv_pos_site_id
 _symmetry_equiv_pos_as_xyz
  1  'x, y, z'
loop_
 _atom_site_type_symbol
 _atom_site_label
 _atom_site_symmetry_multiplicity
 _atom_site_fract_x
 _atom_site_fract_y
 _atom_site_fract_z
 _atom_site_occupancy
  F  F0  1  0.57738036  0.38211413  0.61043016  1
  F  F1  1  0.42261964  0.61788587  0.61043016  1
  F  F2  1  0.92261964  0.88211413  0.38956984  1
  F  F3  1  0.07738036  0.11788587  0.38956984  1
  F  F4  1  0.42261964  0.61788587  0.38956984  1
  F  F5  1  0.57738036  0.38211413  0.38956984  1
  F  F6  1  0.07738036  0.11788587  0.61043016  1
  F  F7  1  0.92261964  0.88211413  0.61043016  1
  F  F8  1  0.12163642  0.59353767  0.75653882  1
  F  F9  1  0.87836358  0.40646233  0.75653882  1
  F  F10  1  0.37836358  0.09353767  0.24346118  1
  F  F11  1  0.62163642  0.90646233  0.24346118  1
  F  F12  1  0.87836358  0.40646233  0.24346118  1
  F  F13  1  0.12163642  0.59353767  0.24346118  1
  F  F14  1  0.62163642  0.90646233  0.75653882  1
  F  F15  1  0.37836358  0.09353767  0.75653882  1
  F  F16  1  0.00000000  0.00000000  0.19844701  1
  F  F17  1  0.50000000  0.50000000  0.80155299  1
  F  F18  1  0.00000000  0.00000000  0.80155299  1
  F  F19  1  0.50000000  0.50000000  0.19844701  1
  F  F20  1  0.00000000  0.00000000  0.50000000  1
  F  F21  1  0.50000000  0.50000000  0.50000000  1
  Li  Li22  1  0.00000000  0.00000000  0.60593797  1
  Li  Li23  1  0.50000000  0.50000000  0.39406203  1
  Li  Li24  1  0.00000000  0.00000000  0.39406203  1
  Li  Li25  1  0.50000000  0.50000000  0.60593797  1
  Li  Li26  1  0.24058054  0.21865082  0.50000000  1
  Li  Li27  1  0.75941946  0.78134918  0.50000000  1
  Li  Li28  1  0.25941946  0.71865082  0.50000000  1
  Li  Li29  1  0.74058054  0.28134918  0.50000000  1
  Li  Li30  1  0.77976117  0.03587190  0.78059478  1
  Li  Li31  1  -0.77976117  -0.03587190  0.78059478  1
  Li  Li32  1  -0.27976117  0.53587190  -0.78059478  1
  Li  Li33  1  1.27976117  0.46412810  -0.78059478  1
  Li  Li34  1  -0.77976117  -0.03587190  -0.78059478  1
  Li  Li35  1  0.77976117  0.03587190  -0.78059478  1
  Li  Li36  1  1.27976117  0.46412810  0.78059478  1
  Li  Li37  1  -0.27976117  0.53587190  0.78059478  1
  Li  Li38  1  0.00000000  0.00000000  0.00000000  1
  Li  Li39  1  0.50000000  0.50000000  0.00000000  1
  Li  Li40  1  0.15577006  0.97633669  0.00000000  1
  Li  Li41  1  0.84422994  0.02366331  0.00000000  1
  Li  Li42  1  0.34422994  0.47633669  0.00000000  1
  Li  Li43  1  0.65577006  0.52366331  0.00000000  1
