# generated using pymatgen
data_Li2Si4Te3F12
_symmetry_space_group_name_H-M   'P 1'
_cell_length_a   10.24979039
_cell_length_b   10.24979039
_cell_length_c   5.37594645
_cell_angle_alpha   90.00000000
_cell_angle_beta   90.00000000
_cell_angle_gamma   90.00000000
_symmetry_Int_Tables_number   1
_chemical_formula_structural   Li2Si4Te3F12
_chemical_formula_sum   'Li8 Si16 Te12 F48'
_cell_volume   564.78727281
_cell_formula_units_Z   4
loop_
 _symmetry_equiv_pos_site_id
 _symmetry_equiv_pos_as_xyz
  1  'x, y, z'
loop_
 _atom_site_type_symbol
 _atom_site_label
 _atom_site_symmetry_multiplicity
 _atom_site_fract_x
 _atom_site_fract_y
 _atom_site_fract_z
 _atom_site_occupancy
  F  F0  1  0.41633203  0.97448317  0.56015492  1
  F  F1  1  0.08366797  -0.97448317  1.06015492  1
  F  F2  1  -0.72448317  1.16633203  0.81015492  1
  F  F3  1  1.22448317  -0.16633203  1.31015492  1
  F  F4  1  0.08366797  0.97448317  -0.06015492  1
  F  F5  1  0.41633203  -0.97448317  -0.56015492  1
  F  F6  1  1.22448317  1.16633203  -0.31015492  1
  F  F7  1  -0.72448317  -0.16633203  0.18984508  1
  F  F8  1  -0.41633203  -0.97448317  -0.56015492  1
  F  F9  1  0.91633203  0.97448317  -0.06015492  1
  F  F10  1  1.72448317  -0.16633203  0.18984508  1
  F  F11  1  -0.22448317  1.16633203  -0.31015492  1
  F  F12  1  0.91633203  -0.97448317  1.06015492  1
  F  F13  1  -0.41633203  0.97448317  0.56015492  1
  F  F14  1  -0.22448317  -0.16633203  1.31015492  1
  F  F15  1  1.72448317  1.16633203  0.81015492  1
  F  F16  1  0.91633203  1.47448317  1.06015492  1
  F  F17  1  0.58366797  -0.47448317  1.56015492  1
  F  F18  1  -0.22448317  1.66633203  1.31015492  1
  F  F19  1  1.72448317  0.33366797  1.81015492  1
  F  F20  1  0.58366797  1.47448317  0.43984508  1
  F  F21  1  0.91633203  -0.47448317  -0.06015492  1
  F  F22  1  1.72448317  1.66633203  0.18984508  1
  F  F23  1  -0.22448317  0.33366797  0.68984508  1
  F  F24  1  0.08366797  -0.47448317  -0.06015492  1
  F  F25  1  1.41633203  1.47448317  0.43984508  1
  F  F26  1  2.22448317  0.33366797  0.68984508  1
  F  F27  1  0.27551683  1.66633203  0.18984508  1
  F  F28  1  1.41633203  -0.47448317  1.56015492  1
  F  F29  1  0.08366797  1.47448317  1.06015492  1
  F  F30  1  0.27551683  0.33366797  1.81015492  1
  F  F31  1  2.22448317  1.66633203  1.31015492  1
  F  F32  1  0.00000000  0.02861747  0.64221941  1
  F  F33  1  0.50000000  0.97138253  0.14221941  1
  F  F34  1  0.22138253  0.75000000  0.89221941  1
  F  F35  1  0.27861747  0.25000000  0.39221941  1
  F  F36  1  0.50000000  0.02861747  0.85778059  1
  F  F37  1  0.00000000  0.97138253  0.35778059  1
  F  F38  1  0.27861747  0.75000000  0.60778059  1
  F  F39  1  0.22138253  0.25000000  0.10778059  1
  F  F40  1  0.50000000  0.52861747  0.14221941  1
  F  F41  1  0.00000000  0.47138253  0.64221941  1
  F  F42  1  0.72138253  0.25000000  0.39221941  1
  F  F43  1  0.77861747  0.75000000  0.89221941  1
  F  F44  1  0.00000000  0.52861747  0.35778059  1
  F  F45  1  0.50000000  0.47138253  0.85778059  1
  F  F46  1  0.77861747  0.25000000  0.10778059  1
  F  F47  1  0.72138253  0.75000000  0.60778059  1
  Li  Li48  1  0.00000000  0.00000000  0.00000000  1
  Li  Li49  1  0.50000000  -0.00000000  0.50000000  1
  Li  Li50  1  0.25000000  0.75000000  0.25000000  1
  Li  Li51  1  0.25000000  0.25000000  0.75000000  1
  Li  Li52  1  0.50000000  0.50000000  0.50000000  1
  Li  Li53  1  0.00000000  0.50000000  0.00000000  1
  Li  Li54  1  0.75000000  0.25000000  0.75000000  1
  Li  Li55  1  0.75000000  0.75000000  0.25000000  1
  Si  Si56  1  0.63747915  -0.00000000  -0.00000000  1
  Si  Si57  1  0.86252085  -0.00000000  0.50000000  1
  Si  Si58  1  0.25000000  0.38747915  0.25000000  1
  Si  Si59  1  0.25000000  0.61252085  0.75000000  1
  Si  Si60  1  0.36252085  -0.00000000  -0.00000000  1
  Si  Si61  1  0.13747915  -0.00000000  0.50000000  1
  Si  Si62  1  0.75000000  0.61252085  0.75000000  1
  Si  Si63  1  0.75000000  0.38747915  0.25000000  1
  Si  Si64  1  0.13747915  0.50000000  0.50000000  1
  Si  Si65  1  0.36252085  0.50000000  -0.00000000  1
  Si  Si66  1  0.75000000  0.88747915  0.75000000  1
  Si  Si67  1  0.75000000  0.11252085  0.25000000  1
  Si  Si68  1  0.86252085  0.50000000  0.50000000  1
  Si  Si69  1  0.63747915  0.50000000  -0.00000000  1
  Si  Si70  1  0.25000000  0.11252085  0.25000000  1
  Si  Si71  1  0.25000000  0.88747915  0.75000000  1
  Te  Te72  1  0.00000000  0.25000000  0.01086393  1
  Te  Te73  1  0.00000000  0.75000000  0.26086393  1
  Te  Te74  1  0.50000000  0.25000000  0.48913607  1
  Te  Te75  1  0.50000000  0.75000000  0.23913607  1
  Te  Te76  1  0.50000000  0.75000000  0.51086393  1
  Te  Te77  1  0.50000000  0.25000000  0.76086393  1
  Te  Te78  1  0.00000000  0.75000000  0.98913607  1
  Te  Te79  1  0.00000000  0.25000000  0.73913607  1
  Te  Te80  1  0.00000000  0.25000000  0.37500000  1
  Te  Te81  1  0.00000000  0.75000000  0.62500000  1
  Te  Te82  1  0.50000000  0.75000000  0.87500000  1
  Te  Te83  1  0.50000000  0.25000000  0.12500000  1
