# generated using pymatgen
data_Li4TeF2
_symmetry_space_group_name_H-M   'P 1'
_cell_length_a   14.00677851
_cell_length_b   14.00677851
_cell_length_c   14.00677851
_cell_angle_alpha   90.00000000
_cell_angle_beta   90.00000000
_cell_angle_gamma   90.00000000
_symmetry_Int_Tables_number   1
_chemical_formula_structural   Li4TeF2
_chemical_formula_sum   'Li96 Te24 F48'
_cell_volume   2747.98769371
_cell_formula_units_Z   24
loop_
 _symmetry_equiv_pos_site_id
 _symmetry_equiv_pos_as_xyz
  1  'x, y, z'
loop_
 _atom_site_type_symbol
 _atom_site_label
 _atom_site_symmetry_multiplicity
 _atom_site_fract_x
 _atom_site_fract_y
 _atom_site_fract_z
 _atom_site_occupancy
  F  F0  1  0.74356539  0.91184239  0.05985605  1
  F  F1  1  -0.24356539  -0.91184239  0.55985605  1
  F  F2  1  -0.74356539  1.41184239  0.44014395  1
  F  F3  1  1.24356539  -0.41184239  -0.05985605  1
  F  F4  1  0.05985605  0.74356539  0.91184239  1
  F  F5  1  0.55985605  -0.24356539  -0.91184239  1
  F  F6  1  0.44014395  -0.74356539  1.41184239  1
  F  F7  1  -0.05985605  1.24356539  -0.41184239  1
  F  F8  1  0.91184239  0.05985605  0.74356539  1
  F  F9  1  -0.91184239  0.55985605  -0.24356539  1
  F  F10  1  1.41184239  0.44014395  -0.74356539  1
  F  F11  1  -0.41184239  -0.05985605  1.24356539  1
  F  F12  1  1.66184239  0.99356539  0.19014395  1
  F  F13  1  -0.16184239  0.00643461  0.69014395  1
  F  F14  1  1.16184239  -0.49356539  0.80985605  1
  F  F15  1  -0.66184239  1.49356539  0.30985605  1
  F  F16  1  1.49356539  0.30985605  -0.66184239  1
  F  F17  1  -0.49356539  0.80985605  1.16184239  1
  F  F18  1  0.00643461  0.69014395  -0.16184239  1
  F  F19  1  0.99356539  0.19014395  1.66184239  1
  F  F20  1  0.80985605  1.16184239  -0.49356539  1
  F  F21  1  0.30985605  -0.66184239  1.49356539  1
  F  F22  1  0.19014395  1.66184239  0.99356539  1
  F  F23  1  0.69014395  -0.16184239  0.00643461  1
  F  F24  1  1.24356539  1.41184239  0.55985605  1
  F  F25  1  0.25643461  -0.41184239  1.05985605  1
  F  F26  1  -0.24356539  1.91184239  0.94014395  1
  F  F27  1  1.74356539  0.08815761  0.44014395  1
  F  F28  1  0.55985605  1.24356539  1.41184239  1
  F  F29  1  1.05985605  0.25643461  -0.41184239  1
  F  F30  1  0.94014395  -0.24356539  1.91184239  1
  F  F31  1  0.44014395  1.74356539  0.08815761  1
  F  F32  1  1.41184239  0.55985605  1.24356539  1
  F  F33  1  -0.41184239  1.05985605  0.25643461  1
  F  F34  1  1.91184239  0.94014395  -0.24356539  1
  F  F35  1  0.08815761  0.44014395  1.74356539  1
  F  F36  1  2.16184239  1.49356539  0.69014395  1
  F  F37  1  0.33815761  0.50643461  1.19014395  1
  F  F38  1  1.66184239  0.00643461  1.30985605  1
  F  F39  1  -0.16184239  1.99356539  0.80985605  1
  F  F40  1  1.99356539  0.80985605  -0.16184239  1
  F  F41  1  0.00643461  1.30985605  1.66184239  1
  F  F42  1  0.50643461  1.19014395  0.33815761  1
  F  F43  1  1.49356539  0.69014395  2.16184239  1
  F  F44  1  1.30985605  1.66184239  0.00643461  1
  F  F45  1  0.80985605  -0.16184239  1.99356539  1
  F  F46  1  0.69014395  2.16184239  1.49356539  1
  F  F47  1  1.19014395  0.33815761  0.50643461  1
  Li  Li48  1  0.12500000  0.79351468  0.45648532  1
  Li  Li49  1  0.37500000  0.20648532  0.95648532  1
  Li  Li50  1  0.87500000  0.29351468  0.04351468  1
  Li  Li51  1  0.62500000  0.70648532  0.54351468  1
  Li  Li52  1  0.45648532  0.12500000  0.79351468  1
  Li  Li53  1  0.95648532  0.37500000  0.20648532  1
  Li  Li54  1  0.04351468  0.87500000  0.29351468  1
  Li  Li55  1  0.54351468  0.62500000  0.70648532  1
  Li  Li56  1  0.79351468  0.45648532  0.12500000  1
  Li  Li57  1  0.20648532  0.95648532  0.37500000  1
  Li  Li58  1  0.29351468  0.04351468  0.87500000  1
  Li  Li59  1  0.70648532  0.54351468  0.62500000  1
  Li  Li60  1  0.62500000  0.29351468  0.95648532  1
  Li  Li61  1  0.87500000  0.70648532  0.45648532  1
  Li  Li62  1  0.37500000  0.79351468  0.54351468  1
  Li  Li63  1  0.12500000  0.20648532  0.04351468  1
  Li  Li64  1  0.95648532  0.62500000  0.29351468  1
  Li  Li65  1  0.45648532  0.87500000  0.70648532  1
  Li  Li66  1  0.54351468  0.37500000  0.79351468  1
  Li  Li67  1  0.04351468  0.12500000  0.20648532  1
  Li  Li68  1  0.29351468  0.95648532  0.62500000  1
  Li  Li69  1  0.70648532  0.45648532  0.87500000  1
  Li  Li70  1  0.79351468  0.54351468  0.37500000  1
  Li  Li71  1  0.20648532  0.04351468  0.12500000  1
  Li  Li72  1  0.12500000  0.71523436  0.53476564  1
  Li  Li73  1  0.37500000  0.28476564  0.03476564  1
  Li  Li74  1  0.87500000  0.21523436  0.96523436  1
  Li  Li75  1  0.62500000  0.78476564  0.46523436  1
  Li  Li76  1  0.53476564  0.12500000  0.71523436  1
  Li  Li77  1  0.03476564  0.37500000  0.28476564  1
  Li  Li78  1  0.96523436  0.87500000  0.21523436  1
  Li  Li79  1  0.46523436  0.62500000  0.78476564  1
  Li  Li80  1  0.71523436  0.53476564  0.12500000  1
  Li  Li81  1  0.28476564  0.03476564  0.37500000  1
  Li  Li82  1  0.21523436  0.96523436  0.87500000  1
  Li  Li83  1  0.78476564  0.46523436  0.62500000  1
  Li  Li84  1  0.62500000  0.21523436  0.03476564  1
  Li  Li85  1  0.87500000  0.78476564  0.53476564  1
  Li  Li86  1  0.37500000  0.71523436  0.46523436  1
  Li  Li87  1  0.12500000  0.28476564  0.96523436  1
  Li  Li88  1  0.03476564  0.62500000  0.21523436  1
  Li  Li89  1  0.53476564  0.87500000  0.78476564  1
  Li  Li90  1  0.46523436  0.37500000  0.71523436  1
  Li  Li91  1  0.96523436  0.12500000  0.28476564  1
  Li  Li92  1  0.21523436  0.03476564  0.62500000  1
  Li  Li93  1  0.78476564  0.53476564  0.87500000  1
  Li  Li94  1  0.71523436  0.46523436  0.37500000  1
  Li  Li95  1  0.28476564  0.96523436  0.12500000  1
  Li  Li96  1  0.87500000  0.87500000  0.87500000  1
  Li  Li97  1  0.62500000  0.12500000  0.37500000  1
  Li  Li98  1  0.12500000  0.37500000  0.62500000  1
  Li  Li99  1  0.37500000  0.62500000  0.12500000  1
  Li  Li100  1  0.37500000  0.37500000  0.37500000  1
  Li  Li101  1  0.12500000  0.62500000  0.87500000  1
  Li  Li102  1  0.62500000  0.87500000  0.12500000  1
  Li  Li103  1  0.87500000  0.12500000  0.62500000  1
  Li  Li104  1  0.12500000  0.93197743  0.31802257  1
  Li  Li105  1  0.37500000  0.06802257  0.81802257  1
  Li  Li106  1  0.87500000  0.43197743  0.18197743  1
  Li  Li107  1  0.62500000  0.56802257  0.68197743  1
  Li  Li108  1  0.31802257  0.12500000  0.93197743  1
  Li  Li109  1  0.81802257  0.37500000  0.06802257  1
  Li  Li110  1  0.18197743  0.87500000  0.43197743  1
  Li  Li111  1  0.68197743  0.62500000  0.56802257  1
  Li  Li112  1  0.93197743  0.31802257  0.12500000  1
  Li  Li113  1  0.06802257  0.81802257  0.37500000  1
  Li  Li114  1  0.43197743  0.18197743  0.87500000  1
  Li  Li115  1  0.56802257  0.68197743  0.62500000  1
  Li  Li116  1  0.62500000  0.43197743  0.81802257  1
  Li  Li117  1  0.87500000  0.56802257  0.31802257  1
  Li  Li118  1  0.37500000  0.93197743  0.68197743  1
  Li  Li119  1  0.12500000  0.06802257  0.18197743  1
  Li  Li120  1  0.81802257  0.62500000  0.43197743  1
  Li  Li121  1  0.31802257  0.87500000  0.56802257  1
  Li  Li122  1  0.68197743  0.37500000  0.93197743  1
  Li  Li123  1  0.18197743  0.12500000  0.06802257  1
  Li  Li124  1  0.43197743  0.81802257  0.62500000  1
  Li  Li125  1  0.56802257  0.31802257  0.87500000  1
  Li  Li126  1  0.93197743  0.68197743  0.37500000  1
  Li  Li127  1  0.06802257  0.18197743  0.12500000  1
  Li  Li128  1  0.25391523  0.25391523  0.25391523  1
  Li  Li129  1  0.24608477  0.74608477  0.75391523  1
  Li  Li130  1  0.74608477  0.75391523  0.24608477  1
  Li  Li131  1  0.75391523  0.24608477  0.74608477  1
  Li  Li132  1  0.00391523  0.50391523  0.99608477  1
  Li  Li133  1  0.49608477  0.49608477  0.49608477  1
  Li  Li134  1  0.50391523  0.99608477  0.00391523  1
  Li  Li135  1  0.99608477  0.00391523  0.50391523  1
  Li  Li136  1  0.75391523  0.75391523  0.75391523  1
  Li  Li137  1  0.74608477  0.24608477  0.25391523  1
  Li  Li138  1  0.24608477  0.25391523  0.74608477  1
  Li  Li139  1  0.25391523  0.74608477  0.24608477  1
  Li  Li140  1  0.50391523  0.00391523  0.49608477  1
  Li  Li141  1  0.99608477  0.99608477  0.99608477  1
  Li  Li142  1  0.00391523  0.49608477  0.50391523  1
  Li  Li143  1  0.49608477  0.50391523  0.00391523  1
  Te  Te144  1  0.00934510  -0.00000000  0.25000000  1
  Te  Te145  1  0.49065490  -0.00000000  0.75000000  1
  Te  Te146  1  0.25000000  0.00934510  -0.00000000  1
  Te  Te147  1  0.75000000  0.49065490  0.00000000  1
  Te  Te148  1  0.00000000  0.25000000  0.00934510  1
  Te  Te149  1  0.00000000  0.75000000  0.49065490  1
  Te  Te150  1  0.75000000  0.25934510  -0.00000000  1
  Te  Te151  1  0.75000000  0.74065490  0.50000000  1
  Te  Te152  1  0.75934510  0.50000000  0.25000000  1
  Te  Te153  1  0.24065490  -0.00000000  0.25000000  1
  Te  Te154  1  0.00000000  0.25000000  0.24065490  1
  Te  Te155  1  0.50000000  0.25000000  0.75934510  1
  Te  Te156  1  0.50934510  0.50000000  0.75000000  1
  Te  Te157  1  0.99065490  0.50000000  0.25000000  1
  Te  Te158  1  0.75000000  0.50934510  0.50000000  1
  Te  Te159  1  0.25000000  0.99065490  0.50000000  1
  Te  Te160  1  0.50000000  0.75000000  0.50934510  1
  Te  Te161  1  0.50000000  0.25000000  0.99065490  1
  Te  Te162  1  0.25000000  0.75934510  0.50000000  1
  Te  Te163  1  0.25000000  0.24065490  -0.00000000  1
  Te  Te164  1  0.25934510  0.00000000  0.75000000  1
  Te  Te165  1  0.74065490  0.50000000  0.75000000  1
  Te  Te166  1  0.50000000  0.75000000  0.74065490  1
  Te  Te167  1  0.00000000  0.75000000  0.25934510  1
