# generated using pymatgen
data_Li3Y2(P2Se)2
_symmetry_space_group_name_H-M   'P 1'
_cell_length_a   5.35388758
_cell_length_b   5.68723870
_cell_length_c   7.33294012
_cell_angle_alpha   94.07499753
_cell_angle_beta   98.87449744
_cell_angle_gamma   106.36764549
_symmetry_Int_Tables_number   1
_chemical_formula_structural   Li3Y2(P2Se)2
_chemical_formula_sum   'Li3 Y2 P4 Se2'
_cell_volume   210.11550117
_cell_formula_units_Z   1
loop_
 _symmetry_equiv_pos_site_id
 _symmetry_equiv_pos_as_xyz
  1  'x, y, z'
loop_
 _atom_site_type_symbol
 _atom_site_label
 _atom_site_symmetry_multiplicity
 _atom_site_fract_x
 _atom_site_fract_y
 _atom_site_fract_z
 _atom_site_occupancy
  Se  Se0  1  0.00000000  0.00000000  0.00000000  1
  Se  Se1  1  0.50000000  0.50000000  0.50000000  1
  Y  Y2  1  0.25000000  0.25000000  0.25000000  1
  Y  Y3  1  0.75000000  0.25000000  0.00000000  1
  P  P4  1  0.25000000  0.75000000  0.50000000  1
  P  P5  1  0.18142210  0.31714614  0.37890025  1
  P  P6  1  0.05146706  0.04073647  0.63863489  1
  P  P7  1  0.02902381  0.20364321  0.24562639  1
  Li  Li8  1  0.56564212  0.68069074  0.51266038  1
  Li  Li9  1  0.62300815  0.82220156  0.92441314  1
  Li  Li10  1  0.32797185  0.06807116  0.42091451  1
