# generated using pymatgen
data_LiCaF3
_symmetry_space_group_name_H-M   'P 1'
_cell_length_a   10.40406460
_cell_length_b   10.40406460
_cell_length_c   16.51181804
_cell_angle_alpha   90.00000000
_cell_angle_beta   90.00000000
_cell_angle_gamma   120.00000000
_symmetry_Int_Tables_number   1
_chemical_formula_structural   LiCaF3
_chemical_formula_sum   'Li18 Ca18 F54'
_cell_volume   1547.85974555
_cell_formula_units_Z   18
loop_
 _symmetry_equiv_pos_site_id
 _symmetry_equiv_pos_as_xyz
  1  'x, y, z'
loop_
 _atom_site_type_symbol
 _atom_site_label
 _atom_site_symmetry_multiplicity
 _atom_site_fract_x
 _atom_site_fract_y
 _atom_site_fract_z
 _atom_site_occupancy
  Ca  Ca0  1  0.50000000  0.00000000  0.00000000  1
  Ca  Ca1  1  0.00000000  0.50000000  -0.00000000  1
  Ca  Ca2  1  0.50000000  0.50000000  0.00000000  1
  Ca  Ca3  1  0.00000000  0.50000000  0.50000000  1
  Ca  Ca4  1  0.50000000  0.00000000  0.50000000  1
  Ca  Ca5  1  0.50000000  0.50000000  0.50000000  1
  Ca  Ca6  1  0.16666667  0.33333333  0.33333333  1
  Ca  Ca7  1  0.66666667  0.83333333  0.33333333  1
  Ca  Ca8  1  0.16666667  0.83333333  0.33333333  1
  Ca  Ca9  1  0.66666667  0.83333333  0.83333333  1
  Ca  Ca10  1  0.16666667  0.33333333  0.83333333  1
  Ca  Ca11  1  0.16666667  0.83333333  0.83333333  1
  Ca  Ca12  1  0.83333333  0.66666667  0.66666667  1
  Ca  Ca13  1  0.33333333  0.16666667  0.66666667  1
  Ca  Ca14  1  0.83333333  0.16666667  0.66666667  1
  Ca  Ca15  1  0.33333333  0.16666667  0.16666667  1
  Ca  Ca16  1  0.83333333  0.66666667  0.16666667  1
  Ca  Ca17  1  0.83333333  0.16666667  0.16666667  1
  F  F18  1  0.91277787  0.10005102  0.16575159  1
  F  F19  1  -0.10005102  0.81272685  0.16575159  1
  F  F20  1  -0.81272685  -0.91277787  0.16575159  1
  F  F21  1  0.10005102  0.91277787  0.33424841  1
  F  F22  1  0.81272685  -0.10005102  0.33424841  1
  F  F23  1  -0.91277787  -0.81272685  0.33424841  1
  F  F24  1  -0.91277787  -0.10005102  -0.16575159  1
  F  F25  1  0.10005102  -0.81272685  -0.16575159  1
  F  F26  1  0.81272685  0.91277787  -0.16575159  1
  F  F27  1  -0.10005102  -0.91277787  0.66575159  1
  F  F28  1  -0.81272685  0.10005102  0.66575159  1
  F  F29  1  0.91277787  0.81272685  0.66575159  1
  F  F30  1  1.57944454  0.43338435  0.49908492  1
  F  F31  1  0.56661565  1.14606019  0.49908492  1
  F  F32  1  -0.14606019  -0.57944454  0.49908492  1
  F  F33  1  0.76671769  1.24611121  0.66758175  1
  F  F34  1  1.47939352  0.23328231  0.66758175  1
  F  F35  1  -0.24611121  -0.47939352  0.66758175  1
  F  F36  1  -0.24611121  0.23328231  0.16758175  1
  F  F37  1  0.76671769  -0.47939352  0.16758175  1
  F  F38  1  1.47939352  1.24611121  0.16758175  1
  F  F39  1  0.56661565  -0.57944454  0.99908492  1
  F  F40  1  -0.14606019  0.43338435  0.99908492  1
  F  F41  1  1.57944454  1.14606019  0.99908492  1
  F  F42  1  1.24611121  0.76671769  0.83241825  1
  F  F43  1  0.23328231  1.47939352  0.83241825  1
  F  F44  1  -0.47939352  -0.24611121  0.83241825  1
  F  F45  1  0.43338435  1.57944454  1.00091508  1
  F  F46  1  1.14606019  0.56661565  1.00091508  1
  F  F47  1  -0.57944454  -0.14606019  1.00091508  1
  F  F48  1  -0.57944454  0.56661565  0.50091508  1
  F  F49  1  0.43338435  -0.14606019  0.50091508  1
  F  F50  1  1.14606019  1.57944454  0.50091508  1
  F  F51  1  0.23328231  -0.24611121  1.33241825  1
  F  F52  1  -0.47939352  0.76671769  1.33241825  1
  F  F53  1  1.24611121  1.47939352  1.33241825  1
  F  F54  1  0.00000000  0.00000000  0.82699958  1
  F  F55  1  0.00000000  0.00000000  0.67300042  1
  F  F56  1  0.00000000  0.00000000  0.17300042  1
  F  F57  1  0.00000000  0.00000000  0.32699958  1
  F  F58  1  0.66666667  0.33333333  0.16033292  1
  F  F59  1  0.66666667  0.33333333  0.00633375  1
  F  F60  1  0.66666667  0.33333333  0.50633375  1
  F  F61  1  0.66666667  0.33333333  0.66033292  1
  F  F62  1  0.33333333  0.66666667  0.49366625  1
  F  F63  1  0.33333333  0.66666667  0.33966708  1
  F  F64  1  0.33333333  0.66666667  0.83966708  1
  F  F65  1  0.33333333  0.66666667  0.99366625  1
  F  F66  1  0.00000000  0.00000000  0.00000000  1
  F  F67  1  0.00000000  0.00000000  0.50000000  1
  F  F68  1  0.66666667  0.33333333  0.33333333  1
  F  F69  1  0.66666667  0.33333333  0.83333333  1
  F  F70  1  0.33333333  0.66666667  0.66666667  1
  F  F71  1  0.33333333  0.66666667  0.16666667  1
  Li  Li72  1  0.00000000  0.00000000  0.25000000  1
  Li  Li73  1  0.00000000  0.00000000  0.75000000  1
  Li  Li74  1  0.66666667  0.33333333  0.58333333  1
  Li  Li75  1  0.66666667  0.33333333  0.08333333  1
  Li  Li76  1  0.33333333  0.66666667  0.91666667  1
  Li  Li77  1  0.33333333  0.66666667  0.41666667  1
  Li  Li78  1  0.00000000  0.00000000  0.08071927  1
  Li  Li79  1  0.00000000  0.00000000  0.41928073  1
  Li  Li80  1  0.00000000  0.00000000  0.91928073  1
  Li  Li81  1  0.00000000  0.00000000  0.58071927  1
  Li  Li82  1  0.66666667  0.33333333  0.41405261  1
  Li  Li83  1  0.66666667  0.33333333  0.75261406  1
  Li  Li84  1  0.66666667  0.33333333  0.25261406  1
  Li  Li85  1  0.66666667  0.33333333  0.91405261  1
  Li  Li86  1  0.33333333  0.66666667  0.74738594  1
  Li  Li87  1  0.33333333  0.66666667  0.08594739  1
  Li  Li88  1  0.33333333  0.66666667  0.58594739  1
  Li  Li89  1  0.33333333  0.66666667  0.24738594  1
