# generated using pymatgen
data_LiCaF3
_symmetry_space_group_name_H-M   'P 1'
_cell_length_a   10.36194484
_cell_length_b   10.36194484
_cell_length_c   21.26668770
_cell_angle_alpha   90.00000000
_cell_angle_beta   90.00000000
_cell_angle_gamma   120.00000000
_symmetry_Int_Tables_number   1
_chemical_formula_structural   LiCaF3
_chemical_formula_sum   'Li18 Ca18 F54'
_cell_volume   1977.48427087
_cell_formula_units_Z   18
loop_
 _symmetry_equiv_pos_site_id
 _symmetry_equiv_pos_as_xyz
  1  'x, y, z'
loop_
 _atom_site_type_symbol
 _atom_site_label
 _atom_site_symmetry_multiplicity
 _atom_site_fract_x
 _atom_site_fract_y
 _atom_site_fract_z
 _atom_site_occupancy
  Ca  Ca0  1  0.89203301  0.00000000  0.25000000  1
  Ca  Ca1  1  0.00000000  0.89203301  0.25000000  1
  Ca  Ca2  1  0.10796699  0.10796699  0.25000000  1
  Ca  Ca3  1  0.10796699  0.00000000  0.75000000  1
  Ca  Ca4  1  0.00000000  0.10796699  0.75000000  1
  Ca  Ca5  1  0.89203301  0.89203301  0.75000000  1
  Ca  Ca6  1  0.55869967  0.33333333  0.58333333  1
  Ca  Ca7  1  0.66666667  0.22536634  0.58333333  1
  Ca  Ca8  1  0.77463366  0.44130033  0.58333333  1
  Ca  Ca9  1  0.77463366  0.33333333  0.08333333  1
  Ca  Ca10  1  0.66666667  0.44130033  0.08333333  1
  Ca  Ca11  1  0.55869967  0.22536634  0.08333333  1
  Ca  Ca12  1  0.22536634  0.66666667  0.91666667  1
  Ca  Ca13  1  0.33333333  0.55869967  0.91666667  1
  Ca  Ca14  1  0.44130033  0.77463366  0.91666667  1
  Ca  Ca15  1  0.44130033  0.66666667  0.41666667  1
  Ca  Ca16  1  0.33333333  0.77463366  0.41666667  1
  Ca  Ca17  1  0.22536634  0.55869967  0.41666667  1
  F  F18  1  0.34766572  0.04323353  0.64028113  1
  F  F19  1  -0.04323353  0.30443219  0.64028113  1
  F  F20  1  -0.30443219  -0.34766572  0.64028113  1
  F  F21  1  0.04323353  0.34766572  -0.14028113  1
  F  F22  1  0.30443219  -0.04323353  -0.14028113  1
  F  F23  1  -0.34766572  -0.30443219  -0.14028113  1
  F  F24  1  -0.34766572  -0.04323353  -0.64028113  1
  F  F25  1  0.04323353  -0.30443219  -0.64028113  1
  F  F26  1  0.30443219  0.34766572  -0.64028113  1
  F  F27  1  -0.04323353  -0.34766572  1.14028113  1
  F  F28  1  -0.30443219  0.04323353  1.14028113  1
  F  F29  1  0.34766572  0.30443219  1.14028113  1
  F  F30  1  1.01433239  0.37656686  0.97361447  1
  F  F31  1  0.62343314  0.63776552  0.97361447  1
  F  F32  1  0.36223448  -0.01433239  0.97361447  1
  F  F33  1  0.70990020  0.68099905  0.19305220  1
  F  F34  1  0.97109886  0.29009980  0.19305220  1
  F  F35  1  0.31900095  0.02890114  0.19305220  1
  F  F36  1  0.31900095  0.29009980  -0.30694780  1
  F  F37  1  0.70990020  0.02890114  -0.30694780  1
  F  F38  1  0.97109886  0.68099905  -0.30694780  1
  F  F39  1  0.62343314  -0.01433239  1.47361447  1
  F  F40  1  0.36223448  0.37656686  1.47361447  1
  F  F41  1  1.01433239  0.63776552  1.47361447  1
  F  F42  1  0.68099905  0.70990020  1.30694780  1
  F  F43  1  0.29009980  0.97109886  1.30694780  1
  F  F44  1  0.02890114  0.31900095  1.30694780  1
  F  F45  1  0.37656686  1.01433239  0.52638553  1
  F  F46  1  0.63776552  0.62343314  0.52638553  1
  F  F47  1  -0.01433239  0.36223448  0.52638553  1
  F  F48  1  -0.01433239  0.62343314  0.02638553  1
  F  F49  1  0.37656686  0.36223448  0.02638553  1
  F  F50  1  0.63776552  1.01433239  0.02638553  1
  F  F51  1  0.29009980  0.31900095  1.80694780  1
  F  F52  1  0.02890114  0.70990020  1.80694780  1
  F  F53  1  0.68099905  0.97109886  1.80694780  1
  F  F54  1  0.00000000  0.00000000  0.00000000  1
  F  F55  1  0.00000000  0.00000000  0.50000000  1
  F  F56  1  0.66666667  0.33333333  0.33333333  1
  F  F57  1  0.66666667  0.33333333  0.83333333  1
  F  F58  1  0.33333333  0.66666667  0.66666667  1
  F  F59  1  0.33333333  0.66666667  0.16666667  1
  F  F60  1  0.00000000  0.00000000  0.13923452  1
  F  F61  1  0.00000000  0.00000000  0.36076548  1
  F  F62  1  0.00000000  0.00000000  0.86076548  1
  F  F63  1  0.00000000  0.00000000  0.63923452  1
  F  F64  1  0.66666667  0.33333333  0.47256785  1
  F  F65  1  0.66666667  0.33333333  0.69409881  1
  F  F66  1  0.66666667  0.33333333  0.19409881  1
  F  F67  1  0.66666667  0.33333333  0.97256785  1
  F  F68  1  0.33333333  0.66666667  0.80590119  1
  F  F69  1  0.33333333  0.66666667  0.02743215  1
  F  F70  1  0.33333333  0.66666667  0.52743215  1
  F  F71  1  0.33333333  0.66666667  0.30590119  1
  Li  Li72  1  0.50000000  0.00000000  0.00000000  1
  Li  Li73  1  0.00000000  0.50000000  0.00000000  1
  Li  Li74  1  0.50000000  0.50000000  0.00000000  1
  Li  Li75  1  0.00000000  0.50000000  0.50000000  1
  Li  Li76  1  0.50000000  0.00000000  0.50000000  1
  Li  Li77  1  0.50000000  0.50000000  0.50000000  1
  Li  Li78  1  0.16666667  0.33333333  0.33333333  1
  Li  Li79  1  0.66666667  0.83333333  0.33333333  1
  Li  Li80  1  0.16666667  0.83333333  0.33333333  1
  Li  Li81  1  0.66666667  0.83333333  0.83333333  1
  Li  Li82  1  0.16666667  0.33333333  0.83333333  1
  Li  Li83  1  0.16666667  0.83333333  0.83333333  1
  Li  Li84  1  0.83333333  0.66666667  0.66666667  1
  Li  Li85  1  0.33333333  0.16666667  0.66666667  1
  Li  Li86  1  0.83333333  0.16666667  0.66666667  1
  Li  Li87  1  0.33333333  0.16666667  0.16666667  1
  Li  Li88  1  0.83333333  0.66666667  0.16666667  1
  Li  Li89  1  0.83333333  0.16666667  0.16666667  1
