# generated using pymatgen
data_Li2P3Se
_symmetry_space_group_name_H-M   'P 1'
_cell_length_a   5.05266926
_cell_length_b   5.40524632
_cell_length_c   6.75763311
_cell_angle_alpha   93.81291614
_cell_angle_beta   97.45260275
_cell_angle_gamma   103.87417691
_symmetry_Int_Tables_number   1
_chemical_formula_structural   Li2P3Se
_chemical_formula_sum   'Li2 P3 Se1'
_cell_volume   176.74357507
_cell_formula_units_Z   1
loop_
 _symmetry_equiv_pos_site_id
 _symmetry_equiv_pos_as_xyz
  1  'x, y, z'
loop_
 _atom_site_type_symbol
 _atom_site_label
 _atom_site_symmetry_multiplicity
 _atom_site_fract_x
 _atom_site_fract_y
 _atom_site_fract_z
 _atom_site_occupancy
  Se  Se0  1  0.12500000  0.00000000  0.25000000  1
  P  P1  1  0.00000000  0.00000000  0.00000000  1
  P  P2  1  0.37500000  0.00000000  0.25000000  1
  P  P3  1  0.25000000  0.25000000  0.25000000  1
  Li  Li4  1  0.00000000  0.25000000  0.12500000  1
  Li  Li5  1  0.94511692  0.69322335  0.15004391  1
