# generated using pymatgen
data_LiY2Sb2P2F6
_symmetry_space_group_name_H-M   'P 1'
_cell_length_a   4.48971504
_cell_length_b   4.53064409
_cell_length_c   5.89187153
_cell_angle_alpha   94.74815487
_cell_angle_beta   96.78153013
_cell_angle_gamma   103.49005345
_symmetry_Int_Tables_number   1
_chemical_formula_structural   LiY2Sb2P2F6
_chemical_formula_sum   'Li1 Y2 Sb2 P2 F6'
_cell_volume   114.96860166
_cell_formula_units_Z   1
loop_
 _symmetry_equiv_pos_site_id
 _symmetry_equiv_pos_as_xyz
  1  'x, y, z'
loop_
 _atom_site_type_symbol
 _atom_site_label
 _atom_site_symmetry_multiplicity
 _atom_site_fract_x
 _atom_site_fract_y
 _atom_site_fract_z
 _atom_site_occupancy
  F  F0  1  0.12500000  0.00000000  0.25000000  1
  F  F1  1  0.00000000  0.00000000  0.00000000  1
  F  F2  1  0.37500000  0.00000000  0.25000000  1
  F  F3  1  0.25000000  0.25000000  0.25000000  1
  F  F4  1  0.00000000  0.25000000  0.12500000  1
  F  F5  1  0.70974244  0.65376645  0.57973939  1
  P  P6  1  0.14940591  0.44866399  0.29008837  1
  P  P7  1  0.54222724  0.34669753  0.81317248  1
  Li  Li8  1  0.53380880  0.64278423  0.81454607  1
  Y  Y9  1  0.59562466  0.22360992  0.47856767  1
  Y  Y10  1  0.50608397  0.09112763  0.17622776  1
  Sb  Sb11  1  0.90424245  0.38864988  0.87232578  1
  Sb  Sb12  1  0.74412608  0.08131248  0.91178045  1
