# generated using pymatgen
data_LiF
_symmetry_space_group_name_H-M   'P 1'
_cell_length_a   6.09497436
_cell_length_b   6.09497436
_cell_length_c   13.66791924
_cell_angle_alpha   90.00000000
_cell_angle_beta   90.00000000
_cell_angle_gamma   90.00000000
_symmetry_Int_Tables_number   1
_chemical_formula_structural   LiF
_chemical_formula_sum   'Li18 F18'
_cell_volume   507.74560111
_cell_formula_units_Z   18
loop_
 _symmetry_equiv_pos_site_id
 _symmetry_equiv_pos_as_xyz
  1  'x, y, z'
loop_
 _atom_site_type_symbol
 _atom_site_label
 _atom_site_symmetry_multiplicity
 _atom_site_fract_x
 _atom_site_fract_y
 _atom_site_fract_z
 _atom_site_occupancy
  F  F0  1  0.45129568  0.66860178  0.30105771  1
  F  F1  1  -0.45129568  -0.66860178  0.30105771  1
  F  F2  1  -0.66860178  0.45129568  0.30105771  1
  F  F3  1  0.66860178  -0.45129568  0.30105771  1
  F  F4  1  -0.45129568  0.66860178  -0.30105771  1
  F  F5  1  0.45129568  -0.66860178  -0.30105771  1
  F  F6  1  0.66860178  0.45129568  -0.30105771  1
  F  F7  1  -0.66860178  -0.45129568  -0.30105771  1
  F  F8  1  -0.45129568  -0.66860178  -0.30105771  1
  F  F9  1  0.45129568  0.66860178  -0.30105771  1
  F  F10  1  0.66860178  -0.45129568  -0.30105771  1
  F  F11  1  -0.66860178  0.45129568  -0.30105771  1
  F  F12  1  0.45129568  -0.66860178  0.30105771  1
  F  F13  1  -0.45129568  0.66860178  0.30105771  1
  F  F14  1  -0.66860178  -0.45129568  0.30105771  1
  F  F15  1  0.66860178  0.45129568  0.30105771  1
  F  F16  1  0.00000000  0.50000000  0.50000000  1
  F  F17  1  0.50000000  0.00000000  0.50000000  1
  Li  Li18  1  0.28254606  0.28254606  0.00000000  1
  Li  Li19  1  0.71745394  0.71745394  0.00000000  1
  Li  Li20  1  0.71745394  0.28254606  0.00000000  1
  Li  Li21  1  0.28254606  0.71745394  0.00000000  1
  Li  Li22  1  0.00000000  0.00000000  0.00000000  1
  Li  Li23  1  0.38086501  0.00000000  0.89931397  1
  Li  Li24  1  0.61913499  -0.00000000  0.89931397  1
  Li  Li25  1  0.00000000  0.38086501  0.89931397  1
  Li  Li26  1  0.00000000  0.61913499  0.89931397  1
  Li  Li27  1  0.61913499  -0.00000000  0.10068603  1
  Li  Li28  1  0.38086501  0.00000000  0.10068603  1
  Li  Li29  1  0.00000000  0.38086501  0.10068603  1
  Li  Li30  1  0.00000000  0.61913499  0.10068603  1
  Li  Li31  1  0.19837106  0.19837106  0.50000000  1
  Li  Li32  1  0.80162894  0.80162894  0.50000000  1
  Li  Li33  1  0.80162894  0.19837106  0.50000000  1
  Li  Li34  1  0.19837106  0.80162894  0.50000000  1
  Li  Li35  1  0.50000000  0.50000000  0.50000000  1
