# generated using pymatgen
data_LiCaF3
_symmetry_space_group_name_H-M   'P 1'
_cell_length_a   17.99226846
_cell_length_b   17.99226846
_cell_length_c   7.11570534
_cell_angle_alpha   90.00000000
_cell_angle_beta   90.00000000
_cell_angle_gamma   120.00000000
_symmetry_Int_Tables_number   1
_chemical_formula_structural   LiCaF3
_chemical_formula_sum   'Li18 Ca18 F54'
_cell_volume   1994.89679224
_cell_formula_units_Z   18
loop_
 _symmetry_equiv_pos_site_id
 _symmetry_equiv_pos_as_xyz
  1  'x, y, z'
loop_
 _atom_site_type_symbol
 _atom_site_label
 _atom_site_symmetry_multiplicity
 _atom_site_fract_x
 _atom_site_fract_y
 _atom_site_fract_z
 _atom_site_occupancy
  Ca  Ca0  1  0.50000000  -0.00000000  0.00000000  1
  Ca  Ca1  1  0.00000000  0.50000000  0.00000000  1
  Ca  Ca2  1  0.50000000  0.50000000  0.00000000  1
  Ca  Ca3  1  0.00000000  0.50000000  0.50000000  1
  Ca  Ca4  1  0.50000000  -0.00000000  0.50000000  1
  Ca  Ca5  1  0.50000000  0.50000000  0.50000000  1
  Ca  Ca6  1  0.16666667  0.33333333  0.33333333  1
  Ca  Ca7  1  0.66666667  0.83333333  0.33333333  1
  Ca  Ca8  1  0.16666667  0.83333333  0.33333333  1
  Ca  Ca9  1  0.66666667  0.83333333  0.83333333  1
  Ca  Ca10  1  0.16666667  0.33333333  0.83333333  1
  Ca  Ca11  1  0.16666667  0.83333333  0.83333333  1
  Ca  Ca12  1  0.83333333  0.66666667  0.66666667  1
  Ca  Ca13  1  0.33333333  0.16666667  0.66666667  1
  Ca  Ca14  1  0.83333333  0.16666667  0.66666667  1
  Ca  Ca15  1  0.33333333  0.16666667  0.16666667  1
  Ca  Ca16  1  0.83333333  0.66666667  0.16666667  1
  Ca  Ca17  1  0.83333333  0.16666667  0.16666667  1
  F  F18  1  0.01145366  0.25909571  0.62198502  1
  F  F19  1  -0.25909571  -0.24764205  0.62198502  1
  F  F20  1  0.24764205  -0.01145366  0.62198502  1
  F  F21  1  0.25909571  0.01145366  -0.12198502  1
  F  F22  1  -0.24764205  -0.25909571  -0.12198502  1
  F  F23  1  -0.01145366  0.24764205  -0.12198502  1
  F  F24  1  -0.01145366  -0.25909571  -0.62198502  1
  F  F25  1  0.25909571  0.24764205  -0.62198502  1
  F  F26  1  -0.24764205  0.01145366  -0.62198502  1
  F  F27  1  -0.25909571  -0.01145366  1.12198502  1
  F  F28  1  0.24764205  0.25909571  1.12198502  1
  F  F29  1  0.01145366  -0.24764205  1.12198502  1
  F  F30  1  0.67812032  0.59242904  0.95531836  1
  F  F31  1  0.40757096  0.08569128  0.95531836  1
  F  F32  1  0.91430872  0.32187968  0.95531836  1
  F  F33  1  0.92576238  0.34478699  0.21134831  1
  F  F34  1  0.41902461  0.07423762  0.21134831  1
  F  F35  1  0.65521301  0.58097539  0.21134831  1
  F  F36  1  0.65521301  0.07423762  -0.28865169  1
  F  F37  1  0.92576238  0.58097539  -0.28865169  1
  F  F38  1  0.41902461  0.34478699  -0.28865169  1
  F  F39  1  0.40757096  0.32187968  1.45531836  1
  F  F40  1  0.91430872  0.59242904  1.45531836  1
  F  F41  1  0.67812032  0.08569128  1.45531836  1
  F  F42  1  0.34478699  0.92576238  1.28865169  1
  F  F43  1  0.07423762  0.41902461  1.28865169  1
  F  F44  1  0.58097539  0.65521301  1.28865169  1
  F  F45  1  0.59242904  0.67812032  0.54468164  1
  F  F46  1  0.08569128  0.40757096  0.54468164  1
  F  F47  1  0.32187968  0.91430872  0.54468164  1
  F  F48  1  0.32187968  0.40757096  0.04468164  1
  F  F49  1  0.59242904  0.91430872  0.04468164  1
  F  F50  1  0.08569128  0.67812032  0.04468164  1
  F  F51  1  0.07423762  0.65521301  1.78865169  1
  F  F52  1  0.58097539  0.92576238  1.78865169  1
  F  F53  1  0.34478699  0.41902461  1.78865169  1
  F  F54  1  0.17200782  0.00000000  0.25000000  1
  F  F55  1  0.00000000  0.17200782  0.25000000  1
  F  F56  1  0.82799218  0.82799218  0.25000000  1
  F  F57  1  0.82799218  -0.00000000  0.75000000  1
  F  F58  1  0.00000000  0.82799218  0.75000000  1
  F  F59  1  0.17200782  0.17200782  0.75000000  1
  F  F60  1  0.83867449  0.33333333  0.58333333  1
  F  F61  1  0.66666667  0.50534115  0.58333333  1
  F  F62  1  0.49465885  0.16132551  0.58333333  1
  F  F63  1  0.49465885  0.33333333  0.08333333  1
  F  F64  1  0.66666667  0.16132551  0.08333333  1
  F  F65  1  0.83867449  0.50534115  0.08333333  1
  F  F66  1  0.50534115  0.66666667  0.91666667  1
  F  F67  1  0.33333333  0.83867449  0.91666667  1
  F  F68  1  0.16132551  0.49465885  0.91666667  1
  F  F69  1  0.16132551  0.66666667  0.41666667  1
  F  F70  1  0.33333333  0.49465885  0.41666667  1
  F  F71  1  0.50534115  0.83867449  0.41666667  1
  Li  Li72  1  0.61765679  0.00000000  0.25000000  1
  Li  Li73  1  0.00000000  0.61765679  0.25000000  1
  Li  Li74  1  0.38234321  0.38234321  0.25000000  1
  Li  Li75  1  0.38234321  0.00000000  0.75000000  1
  Li  Li76  1  0.00000000  0.38234321  0.75000000  1
  Li  Li77  1  0.61765679  0.61765679  0.75000000  1
  Li  Li78  1  0.28432345  0.33333333  0.58333333  1
  Li  Li79  1  0.66666667  0.95099012  0.58333333  1
  Li  Li80  1  0.04900988  0.71567655  0.58333333  1
  Li  Li81  1  0.04900988  0.33333333  0.08333333  1
  Li  Li82  1  0.66666667  0.71567655  0.08333333  1
  Li  Li83  1  0.28432345  0.95099012  0.08333333  1
  Li  Li84  1  0.95099012  0.66666667  0.91666667  1
  Li  Li85  1  0.33333333  0.28432345  0.91666667  1
  Li  Li86  1  0.71567655  0.04900988  0.91666667  1
  Li  Li87  1  0.71567655  0.66666667  0.41666667  1
  Li  Li88  1  0.33333333  0.04900988  0.41666667  1
  Li  Li89  1  0.95099012  0.28432345  0.41666667  1
