# generated using pymatgen
data_LiF
_symmetry_space_group_name_H-M   'P 1'
_cell_length_a   12.48693767
_cell_length_b   12.48693767
_cell_length_c   6.04623851
_cell_angle_alpha   90.00000000
_cell_angle_beta   90.00000000
_cell_angle_gamma   120.00000000
_symmetry_Int_Tables_number   1
_chemical_formula_structural   LiF
_chemical_formula_sum   'Li46 F46'
_cell_volume   816.44661791
_cell_formula_units_Z   46
loop_
 _symmetry_equiv_pos_site_id
 _symmetry_equiv_pos_as_xyz
  1  'x, y, z'
loop_
 _atom_site_type_symbol
 _atom_site_label
 _atom_site_symmetry_multiplicity
 _atom_site_fract_x
 _atom_site_fract_y
 _atom_site_fract_z
 _atom_site_occupancy
  F  F0  1  0.57334074  0.82516053  0.60334672  1
  F  F1  1  0.17483947  0.74818021  0.60334672  1
  F  F2  1  0.25181979  0.42665926  0.60334672  1
  F  F3  1  0.57334074  0.82516053  0.39665328  1
  F  F4  1  0.17483947  0.74818021  0.39665328  1
  F  F5  1  0.25181979  0.42665926  0.39665328  1
  F  F6  1  0.82516053  0.57334074  0.39665328  1
  F  F7  1  0.74818021  0.17483947  0.39665328  1
  F  F8  1  0.42665926  0.25181979  0.39665328  1
  F  F9  1  0.82516053  0.57334074  0.60334672  1
  F  F10  1  0.74818021  0.17483947  0.60334672  1
  F  F11  1  0.42665926  0.25181979  0.60334672  1
  F  F12  1  0.74163406  0.50556305  0.00000000  1
  F  F13  1  0.49443695  0.23607101  0.00000000  1
  F  F14  1  0.76392899  0.25836594  0.00000000  1
  F  F15  1  0.50556305  0.74163406  0.00000000  1
  F  F16  1  0.23607101  0.49443695  0.00000000  1
  F  F17  1  0.25836594  0.76392899  -0.00000000  1
  F  F18  1  0.55579083  0.20682980  0.73050098  1
  F  F19  1  0.79317020  0.34896103  0.73050098  1
  F  F20  1  0.65103897  0.44420917  0.73050098  1
  F  F21  1  0.55579083  0.20682980  0.26949902  1
  F  F22  1  0.79317020  0.34896103  0.26949902  1
  F  F23  1  0.65103897  0.44420917  0.26949902  1
  F  F24  1  0.20682980  0.55579083  0.26949902  1
  F  F25  1  0.34896103  0.79317020  0.26949902  1
  F  F26  1  0.44420917  0.65103897  0.26949902  1
  F  F27  1  0.20682980  0.55579083  0.73050098  1
  F  F28  1  0.34896103  0.79317020  0.73050098  1
  F  F29  1  0.44420917  0.65103897  0.73050098  1
  F  F30  1  0.58712663  0.39768996  0.12541323  1
  F  F31  1  0.60231004  0.18943667  0.12541323  1
  F  F32  1  0.81056333  0.41287337  0.12541323  1
  F  F33  1  0.58712663  0.39768996  0.87458677  1
  F  F34  1  0.60231004  0.18943667  0.87458677  1
  F  F35  1  0.81056333  0.41287337  0.87458677  1
  F  F36  1  0.39768996  0.58712663  0.87458677  1
  F  F37  1  0.18943667  0.60231004  0.87458677  1
  F  F38  1  0.41287337  0.81056333  0.87458677  1
  F  F39  1  0.39768996  0.58712663  0.12541323  1
  F  F40  1  0.18943667  0.60231004  0.12541323  1
  F  F41  1  0.41287337  0.81056333  0.12541323  1
  F  F42  1  0.33333333  0.66666667  0.13367147  1
  F  F43  1  0.33333333  0.66666667  0.86632853  1
  F  F44  1  0.66666667  0.33333333  0.86632853  1
  F  F45  1  0.66666667  0.33333333  0.13367147  1
  Li  Li46  1  0.55984301  0.81233709  0.78278456  1
  Li  Li47  1  -0.81233709  -0.25249408  0.78278456  1
  Li  Li48  1  0.25249408  -0.55984301  0.78278456  1
  Li  Li49  1  0.55984301  0.81233709  -0.78278456  1
  Li  Li50  1  -0.81233709  -0.25249408  -0.78278456  1
  Li  Li51  1  0.25249408  -0.55984301  -0.78278456  1
  Li  Li52  1  0.81233709  0.55984301  -0.78278456  1
  Li  Li53  1  -0.25249408  -0.81233709  -0.78278456  1
  Li  Li54  1  -0.55984301  0.25249408  -0.78278456  1
  Li  Li55  1  0.81233709  0.55984301  0.78278456  1
  Li  Li56  1  -0.25249408  -0.81233709  0.78278456  1
  Li  Li57  1  -0.55984301  0.25249408  0.78278456  1
  Li  Li58  1  0.11931505  0.64660842  -0.00000000  1
  Li  Li59  1  0.35339158  0.47270663  0.00000000  1
  Li  Li60  1  0.52729337  0.88068495  -0.00000000  1
  Li  Li61  1  0.64660842  0.11931505  0.00000000  1
  Li  Li62  1  0.47270663  0.35339158  0.00000000  1
  Li  Li63  1  0.88068495  0.52729337  -0.00000000  1
  Li  Li64  1  0.33333333  0.66666667  0.50000000  1
  Li  Li65  1  0.66666667  0.33333333  0.50000000  1
  Li  Li66  1  0.00000000  0.00000000  0.50000000  1
  Li  Li67  1  0.70162679  0.59697535  0.70758198  1
  Li  Li68  1  0.40302465  0.10465143  0.70758198  1
  Li  Li69  1  0.89534857  0.29837321  0.70758198  1
  Li  Li70  1  0.70162679  0.59697535  0.29241802  1
  Li  Li71  1  0.40302465  0.10465143  0.29241802  1
  Li  Li72  1  0.89534857  0.29837321  0.29241802  1
  Li  Li73  1  0.59697535  0.70162679  0.29241802  1
  Li  Li74  1  0.10465143  0.40302465  0.29241802  1
  Li  Li75  1  0.29837321  0.89534857  0.29241802  1
  Li  Li76  1  0.59697535  0.70162679  0.70758198  1
  Li  Li77  1  0.10465143  0.40302465  0.70758198  1
  Li  Li78  1  0.29837321  0.89534857  0.70758198  1
  Li  Li79  1  0.15558529  0.00000000  0.76705513  1
  Li  Li80  1  0.00000000  0.15558529  0.76705513  1
  Li  Li81  1  0.84441471  0.84441471  0.76705513  1
  Li  Li82  1  0.15558529  0.00000000  0.23294487  1
  Li  Li83  1  0.00000000  0.15558529  0.23294487  1
  Li  Li84  1  0.84441471  0.84441471  0.23294487  1
  Li  Li85  1  0.62346127  0.00000000  0.50000000  1
  Li  Li86  1  0.00000000  0.62346127  0.50000000  1
  Li  Li87  1  0.37653873  0.37653873  0.50000000  1
  Li  Li88  1  0.00000000  0.00000000  0.00000000  1
  Li  Li89  1  0.33573138  0.00000000  0.00000000  1
  Li  Li90  1  0.00000000  0.33573138  0.00000000  1
  Li  Li91  1  0.66426862  0.66426862  0.00000000  1
