# generated using pymatgen
data_LiCaF3
_symmetry_space_group_name_H-M   'P 1'
_cell_length_a   23.40728433
_cell_length_b   23.40728433
_cell_length_c   3.90294614
_cell_angle_alpha   90.00000000
_cell_angle_beta   90.00000000
_cell_angle_gamma   120.00000000
_symmetry_Int_Tables_number   1
_chemical_formula_structural   LiCaF3
_chemical_formula_sum   'Li18 Ca18 F54'
_cell_volume   1851.93291366
_cell_formula_units_Z   18
loop_
 _symmetry_equiv_pos_site_id
 _symmetry_equiv_pos_as_xyz
  1  'x, y, z'
loop_
 _atom_site_type_symbol
 _atom_site_label
 _atom_site_symmetry_multiplicity
 _atom_site_fract_x
 _atom_site_fract_y
 _atom_site_fract_z
 _atom_site_occupancy
  Ca  Ca0  1  0.24429918  -0.00000000  0.25000000  1
  Ca  Ca1  1  0.00000000  0.24429918  0.25000000  1
  Ca  Ca2  1  0.75570082  0.75570082  0.25000000  1
  Ca  Ca3  1  0.75570082  0.00000000  0.75000000  1
  Ca  Ca4  1  0.00000000  0.75570082  0.75000000  1
  Ca  Ca5  1  0.24429918  0.24429918  0.75000000  1
  Ca  Ca6  1  0.91096585  0.33333333  0.58333333  1
  Ca  Ca7  1  0.66666667  0.57763251  0.58333333  1
  Ca  Ca8  1  0.42236749  0.08903415  0.58333333  1
  Ca  Ca9  1  0.42236749  0.33333333  0.08333333  1
  Ca  Ca10  1  0.66666667  0.08903415  0.08333333  1
  Ca  Ca11  1  0.91096585  0.57763251  0.08333333  1
  Ca  Ca12  1  0.57763251  0.66666667  0.91666667  1
  Ca  Ca13  1  0.33333333  0.91096585  0.91666667  1
  Ca  Ca14  1  0.08903415  0.42236749  0.91666667  1
  Ca  Ca15  1  0.08903415  0.66666667  0.41666667  1
  Ca  Ca16  1  0.33333333  0.42236749  0.41666667  1
  Ca  Ca17  1  0.57763251  0.91096585  0.41666667  1
  F  F18  1  0.96193152  0.44177887  0.30266010  1
  F  F19  1  -0.44177887  0.52015265  0.30266010  1
  F  F20  1  -0.52015265  -0.96193152  0.30266010  1
  F  F21  1  0.44177887  0.96193152  0.19733990  1
  F  F22  1  0.52015265  -0.44177887  0.19733990  1
  F  F23  1  -0.96193152  -0.52015265  0.19733990  1
  F  F24  1  -0.96193152  -0.44177887  -0.30266010  1
  F  F25  1  0.44177887  -0.52015265  -0.30266010  1
  F  F26  1  0.52015265  0.96193152  -0.30266010  1
  F  F27  1  -0.44177887  -0.96193152  0.80266010  1
  F  F28  1  -0.52015265  0.44177887  0.80266010  1
  F  F29  1  0.96193152  0.52015265  0.80266010  1
  F  F30  1  1.62859819  0.77511220  0.63599343  1
  F  F31  1  0.22488780  0.85348599  0.63599343  1
  F  F32  1  0.14651401  -0.62859819  0.63599343  1
  F  F33  1  1.10844553  1.29526485  0.53067323  1
  F  F34  1  1.18681932  -0.10844553  0.53067323  1
  F  F35  1  -0.29526485  -0.18681932  0.53067323  1
  F  F36  1  -0.29526485  -0.10844553  0.03067323  1
  F  F37  1  1.10844553  -0.18681932  0.03067323  1
  F  F38  1  1.18681932  1.29526485  0.03067323  1
  F  F39  1  0.22488780  -0.62859819  1.13599343  1
  F  F40  1  0.14651401  0.77511220  1.13599343  1
  F  F41  1  1.62859819  0.85348599  1.13599343  1
  F  F42  1  1.29526485  1.10844553  0.96932677  1
  F  F43  1  -0.10844553  1.18681932  0.96932677  1
  F  F44  1  -0.18681932  -0.29526485  0.96932677  1
  F  F45  1  0.77511220  1.62859819  0.86400657  1
  F  F46  1  0.85348599  0.22488780  0.86400657  1
  F  F47  1  -0.62859819  0.14651401  0.86400657  1
  F  F48  1  -0.62859819  0.22488780  0.36400657  1
  F  F49  1  0.77511220  0.14651401  0.36400657  1
  F  F50  1  0.85348599  1.62859819  0.36400657  1
  F  F51  1  -0.10844553  -0.29526485  1.46932677  1
  F  F52  1  -0.18681932  1.10844553  1.46932677  1
  F  F53  1  1.29526485  1.18681932  1.46932677  1
  F  F54  1  0.50000000  0.00000000  0.00000000  1
  F  F55  1  0.00000000  0.50000000  -0.00000000  1
  F  F56  1  0.50000000  0.50000000  0.00000000  1
  F  F57  1  0.00000000  0.50000000  0.50000000  1
  F  F58  1  0.50000000  0.00000000  0.50000000  1
  F  F59  1  0.50000000  0.50000000  0.50000000  1
  F  F60  1  0.16666667  0.33333333  0.33333333  1
  F  F61  1  0.66666667  0.83333333  0.33333333  1
  F  F62  1  0.16666667  0.83333333  0.33333333  1
  F  F63  1  0.66666667  0.83333333  0.83333333  1
  F  F64  1  0.16666667  0.33333333  0.83333333  1
  F  F65  1  0.16666667  0.83333333  0.83333333  1
  F  F66  1  0.83333333  0.66666667  0.66666667  1
  F  F67  1  0.33333333  0.16666667  0.66666667  1
  F  F68  1  0.83333333  0.16666667  0.66666667  1
  F  F69  1  0.33333333  0.16666667  0.16666667  1
  F  F70  1  0.83333333  0.66666667  0.16666667  1
  F  F71  1  0.83333333  0.16666667  0.16666667  1
  Li  Li72  1  0.04580014  -0.00000000  0.25000000  1
  Li  Li73  1  0.00000000  0.04580014  0.25000000  1
  Li  Li74  1  0.95419986  0.95419986  0.25000000  1
  Li  Li75  1  0.95419986  -0.00000000  0.75000000  1
  Li  Li76  1  0.00000000  0.95419986  0.75000000  1
  Li  Li77  1  0.04580014  0.04580014  0.75000000  1
  Li  Li78  1  0.71246680  0.33333333  0.58333333  1
  Li  Li79  1  0.66666667  0.37913347  0.58333333  1
  Li  Li80  1  0.62086653  0.28753320  0.58333333  1
  Li  Li81  1  0.62086653  0.33333333  0.08333333  1
  Li  Li82  1  0.66666667  0.28753320  0.08333333  1
  Li  Li83  1  0.71246680  0.37913347  0.08333333  1
  Li  Li84  1  0.37913347  0.66666667  0.91666667  1
  Li  Li85  1  0.33333333  0.71246680  0.91666667  1
  Li  Li86  1  0.28753320  0.62086653  0.91666667  1
  Li  Li87  1  0.28753320  0.66666667  0.41666667  1
  Li  Li88  1  0.33333333  0.62086653  0.41666667  1
  Li  Li89  1  0.37913347  0.71246680  0.41666667  1
