# generated using pymatgen
data_Li2Y2MoP3Se2
_symmetry_space_group_name_H-M   'P 1'
_cell_length_a   4.69506018
_cell_length_b   4.84650524
_cell_length_c   6.99957838
_cell_angle_alpha   95.29537077
_cell_angle_beta   101.53221665
_cell_angle_gamma   111.26939977
_symmetry_Int_Tables_number   1
_chemical_formula_structural   Li2Y2MoP3Se2
_chemical_formula_sum   'Li2 Y2 Mo1 P3 Se2'
_cell_volume   143.03896636
_cell_formula_units_Z   1
loop_
 _symmetry_equiv_pos_site_id
 _symmetry_equiv_pos_as_xyz
  1  'x, y, z'
loop_
 _atom_site_type_symbol
 _atom_site_label
 _atom_site_symmetry_multiplicity
 _atom_site_fract_x
 _atom_site_fract_y
 _atom_site_fract_z
 _atom_site_occupancy
  Y  Y0  1  0.00000000  0.00000000  0.00000000  1
  Y  Y1  1  0.50000000  0.50000000  0.50000000  1
  P  P2  1  0.50000000  0.50000000  0.00000000  1
  P  P3  1  0.50000000  0.00000000  0.50000000  1
  P  P4  1  0.00000000  0.50000000  0.50000000  1
  Mo  Mo5  1  0.24188790  0.85699448  0.94682746  1
  Se  Se6  1  0.99088481  0.11323582  0.08025389  1
  Se  Se7  1  0.10278169  0.14351391  0.93373586  1
  Li  Li8  1  0.22612235  0.26731308  0.53166495  1
  Li  Li9  1  0.94084984  0.16181846  0.10090441  1
