# generated using pymatgen
data_LiF
_symmetry_space_group_name_H-M   'P 1'
_cell_length_a   7.32853905
_cell_length_b   7.32853905
_cell_length_c   7.54033240
_cell_angle_alpha   90.00000000
_cell_angle_beta   90.00000000
_cell_angle_gamma   120.00000000
_symmetry_Int_Tables_number   1
_chemical_formula_structural   LiF
_chemical_formula_sum   'Li20 F20'
_cell_volume   350.71628782
_cell_formula_units_Z   20
loop_
 _symmetry_equiv_pos_site_id
 _symmetry_equiv_pos_as_xyz
  1  'x, y, z'
loop_
 _atom_site_type_symbol
 _atom_site_label
 _atom_site_symmetry_multiplicity
 _atom_site_fract_x
 _atom_site_fract_y
 _atom_site_fract_z
 _atom_site_occupancy
  F  F0  1  0.00000000  0.00000000  0.25000000  1
  F  F1  1  0.00000000  0.00000000  0.75000000  1
  F  F2  1  0.57872759  0.71364570  0.50128359  1
  F  F3  1  -0.71364570  -0.13491811  0.50128359  1
  F  F4  1  0.13491811  -0.57872759  0.50128359  1
  F  F5  1  -0.57872759  -0.71364570  1.00128359  1
  F  F6  1  0.71364570  0.13491811  1.00128359  1
  F  F7  1  -0.13491811  0.57872759  1.00128359  1
  F  F8  1  -0.57872759  -0.71364570  -0.50128359  1
  F  F9  1  0.71364570  0.13491811  -0.50128359  1
  F  F10  1  -0.13491811  0.57872759  -0.50128359  1
  F  F11  1  0.57872759  0.71364570  -0.00128359  1
  F  F12  1  -0.71364570  -0.13491811  -0.00128359  1
  F  F13  1  0.13491811  -0.57872759  -0.00128359  1
  F  F14  1  0.00000000  0.00000000  0.10196736  1
  F  F15  1  0.00000000  0.00000000  0.60196736  1
  F  F16  1  0.00000000  0.00000000  0.89803264  1
  F  F17  1  0.00000000  0.00000000  0.39803264  1
  F  F18  1  0.33333333  0.66666667  0.25000000  1
  F  F19  1  0.66666667  0.33333333  0.75000000  1
  Li  Li20  1  0.75409348  0.15210049  0.35239884  1
  Li  Li21  1  0.84789951  0.60199299  0.35239884  1
  Li  Li22  1  0.39800701  0.24590652  0.35239884  1
  Li  Li23  1  0.24590652  0.84789951  0.85239884  1
  Li  Li24  1  0.15210049  0.39800701  0.85239884  1
  Li  Li25  1  0.60199299  0.75409348  0.85239884  1
  Li  Li26  1  0.24590652  0.84789951  0.64760116  1
  Li  Li27  1  0.15210049  0.39800701  0.64760116  1
  Li  Li28  1  0.60199299  0.75409348  0.64760116  1
  Li  Li29  1  0.75409348  0.15210049  0.14760116  1
  Li  Li30  1  0.84789951  0.60199299  0.14760116  1
  Li  Li31  1  0.39800701  0.24590652  0.14760116  1
  Li  Li32  1  0.50000000  0.00000000  0.00000000  1
  Li  Li33  1  0.00000000  0.50000000  0.00000000  1
  Li  Li34  1  0.50000000  0.50000000  0.00000000  1
  Li  Li35  1  0.50000000  0.00000000  0.50000000  1
  Li  Li36  1  0.00000000  0.50000000  0.50000000  1
  Li  Li37  1  0.50000000  0.50000000  0.50000000  1
  Li  Li38  1  0.66666667  0.33333333  0.25000000  1
  Li  Li39  1  0.33333333  0.66666667  0.75000000  1
