# generated using pymatgen
data_LiF
_symmetry_space_group_name_H-M   'P 1'
_cell_length_a   5.56049833
_cell_length_b   5.56049833
_cell_length_c   19.81157677
_cell_angle_alpha   90.00000000
_cell_angle_beta   90.00000000
_cell_angle_gamma   120.00000000
_symmetry_Int_Tables_number   1
_chemical_formula_structural   LiF
_chemical_formula_sum   'Li19 F19'
_cell_volume   530.48987975
_cell_formula_units_Z   19
loop_
 _symmetry_equiv_pos_site_id
 _symmetry_equiv_pos_as_xyz
  1  'x, y, z'
loop_
 _atom_site_type_symbol
 _atom_site_label
 _atom_site_symmetry_multiplicity
 _atom_site_fract_x
 _atom_site_fract_y
 _atom_site_fract_z
 _atom_site_occupancy
  F  F0  1  0.39493609  0.81271675  0.55184383  1
  F  F1  1  0.18728325  0.58221934  0.55184383  1
  F  F2  1  0.41778066  0.60506391  0.55184383  1
  F  F3  1  0.18728325  0.60506391  0.44815617  1
  F  F4  1  0.41778066  0.81271675  0.44815617  1
  F  F5  1  0.39493609  0.58221934  0.44815617  1
  F  F6  1  0.16985906  0.67967888  0.83949446  1
  F  F7  1  0.32032112  0.49018018  0.83949446  1
  F  F8  1  0.50981982  0.83014094  0.83949446  1
  F  F9  1  0.32032112  0.83014094  0.16050554  1
  F  F10  1  0.50981982  0.67967888  0.16050554  1
  F  F11  1  0.16985906  0.49018018  0.16050554  1
  F  F12  1  0.33333333  0.66666667  -0.00000000  1
  F  F13  1  0.00000000  0.00000000  0.00000000  1
  F  F14  1  0.66666667  0.33333333  -0.00000000  1
  F  F15  1  0.66666667  0.33333333  0.18987455  1
  F  F16  1  0.66666667  0.33333333  0.81012545  1
  F  F17  1  0.33333333  0.66666667  0.94613243  1
  F  F18  1  0.33333333  0.66666667  0.05386757  1
  Li  Li19  1  0.33333333  0.66666667  0.50000000  1
  Li  Li20  1  0.83899858  0.84759058  0.96399149  1
  Li  Li21  1  -0.84759058  -0.00859200  0.96399149  1
  Li  Li22  1  0.00859200  -0.83899858  0.96399149  1
  Li  Li23  1  -0.84759058  -0.83899858  -0.96399149  1
  Li  Li24  1  0.00859200  0.84759058  -0.96399149  1
  Li  Li25  1  0.83899858  -0.00859200  -0.96399149  1
  Li  Li26  1  0.51710441  0.10801117  0.23319478  1
  Li  Li27  1  0.89198883  0.40909324  0.23319478  1
  Li  Li28  1  0.59090676  0.48289559  0.23319478  1
  Li  Li29  1  0.89198883  0.48289559  0.76680522  1
  Li  Li30  1  0.59090676  0.10801117  0.76680522  1
  Li  Li31  1  0.51710441  0.40909324  0.76680522  1
  Li  Li32  1  0.52905051  0.58811650  0.10873270  1
  Li  Li33  1  0.41188350  0.94093401  0.10873270  1
  Li  Li34  1  0.05906599  0.47094949  0.10873270  1
  Li  Li35  1  0.41188350  0.47094949  0.89126730  1
  Li  Li36  1  0.05906599  0.58811650  0.89126730  1
  Li  Li37  1  0.52905051  0.94093401  0.89126730  1
