# generated using pymatgen
data_LiF
_symmetry_space_group_name_H-M   'P 1'
_cell_length_a   11.76228793
_cell_length_b   11.76228793
_cell_length_c   6.32405966
_cell_angle_alpha   90.00000000
_cell_angle_beta   90.00000000
_cell_angle_gamma   120.00000000
_symmetry_Int_Tables_number   1
_chemical_formula_structural   LiF
_chemical_formula_sum   'Li35 F35'
_cell_volume   757.72253384
_cell_formula_units_Z   35
loop_
 _symmetry_equiv_pos_site_id
 _symmetry_equiv_pos_as_xyz
  1  'x, y, z'
loop_
 _atom_site_type_symbol
 _atom_site_label
 _atom_site_symmetry_multiplicity
 _atom_site_fract_x
 _atom_site_fract_y
 _atom_site_fract_z
 _atom_site_occupancy
  F  F0  1  0.33333333  0.66666667  0.50000000  1
  F  F1  1  0.33333333  0.66666667  0.62361695  1
  F  F2  1  0.33333333  0.66666667  0.37638305  1
  F  F3  1  0.31015721  0.30013529  0.52204076  1
  F  F4  1  0.69986471  0.01002192  0.52204076  1
  F  F5  1  0.98997808  0.68984279  0.52204076  1
  F  F6  1  0.69986471  0.68984279  0.47795924  1
  F  F7  1  0.98997808  0.30013529  0.47795924  1
  F  F8  1  0.31015721  0.01002192  0.47795924  1
  F  F9  1  0.77018036  0.98125912  0.17898352  1
  F  F10  1  0.01874088  0.78892124  0.17898352  1
  F  F11  1  0.21107876  0.22981964  0.17898352  1
  F  F12  1  0.01874088  0.22981964  0.82101648  1
  F  F13  1  0.21107876  0.98125912  0.82101648  1
  F  F14  1  0.77018036  0.78892124  0.82101648  1
  F  F15  1  0.85855908  0.00428385  0.23778433  1
  F  F16  1  0.99571615  0.85427523  0.23778433  1
  F  F17  1  0.14572477  0.14144092  0.23778433  1
  F  F18  1  0.99571615  0.14144092  0.76221567  1
  F  F19  1  0.14572477  0.00428385  0.76221567  1
  F  F20  1  0.85855908  0.85427523  0.76221567  1
  F  F21  1  0.69458747  0.25995616  0.68841068  1
  F  F22  1  0.74004384  0.43463130  0.68841068  1
  F  F23  1  0.56536870  0.30541253  0.68841068  1
  F  F24  1  0.74004384  0.30541253  0.31158932  1
  F  F25  1  0.56536870  0.25995616  0.31158932  1
  F  F26  1  0.69458747  0.43463130  0.31158932  1
  F  F27  1  0.00000000  0.00000000  0.25642514  1
  F  F28  1  0.00000000  0.00000000  0.74357486  1
  F  F29  1  0.70034595  0.05267569  0.86481591  1
  F  F30  1  0.94732431  0.64767026  0.86481591  1
  F  F31  1  0.35232974  0.29965405  0.86481591  1
  F  F32  1  0.94732431  0.29965405  0.13518409  1
  F  F33  1  0.35232974  0.05267569  0.13518409  1
  F  F34  1  0.70034595  0.64767026  0.13518409  1
  Li  Li35  1  0.63300773  0.82621655  0.36819320  1
  Li  Li36  1  -0.82621655  -0.19320881  0.36819320  1
  Li  Li37  1  0.19320881  -0.63300773  0.36819320  1
  Li  Li38  1  -0.82621655  -0.63300773  -0.36819320  1
  Li  Li39  1  0.19320881  0.82621655  -0.36819320  1
  Li  Li40  1  0.63300773  -0.19320881  -0.36819320  1
  Li  Li41  1  0.33333333  0.66666667  0.00000000  1
  Li  Li42  1  0.45522818  0.54477182  0.00000000  1
  Li  Li43  1  0.45522818  0.91045637  0.00000000  1
  Li  Li44  1  0.08954363  0.54477182  -0.00000000  1
  Li  Li45  1  0.99554257  0.45899533  0.71409687  1
  Li  Li46  1  0.54100467  0.53654724  0.71409687  1
  Li  Li47  1  0.46345276  0.00445743  0.71409687  1
  Li  Li48  1  0.54100467  0.00445743  0.28590313  1
  Li  Li49  1  0.46345276  0.45899533  0.28590313  1
  Li  Li50  1  0.99554257  0.53654724  0.28590313  1
  Li  Li51  1  0.66666667  0.33333333  0.00000000  1
  Li  Li52  1  0.90178481  0.99957328  0.70422798  1
  Li  Li53  1  0.00042672  0.90221153  0.70422798  1
  Li  Li54  1  0.09778847  0.09821519  0.70422798  1
  Li  Li55  1  0.00042672  0.09821519  0.29577202  1
  Li  Li56  1  0.09778847  0.99957328  0.29577202  1
  Li  Li57  1  0.90178481  0.90221153  0.29577202  1
  Li  Li58  1  0.39408829  0.23550764  0.27712326  1
  Li  Li59  1  0.76449236  0.15858065  0.27712326  1
  Li  Li60  1  0.84141935  0.60591171  0.27712326  1
  Li  Li61  1  0.76449236  0.60591171  0.72287674  1
  Li  Li62  1  0.84141935  0.23550764  0.72287674  1
  Li  Li63  1  0.39408829  0.15858065  0.72287674  1
  Li  Li64  1  0.60105678  0.39894322  0.00000000  1
  Li  Li65  1  0.60105678  0.20211356  0.00000000  1
  Li  Li66  1  0.79788644  0.39894322  0.00000000  1
  Li  Li67  1  0.91969463  0.08030537  0.00000000  1
  Li  Li68  1  0.91969463  0.83938926  0.00000000  1
  Li  Li69  1  0.16061074  0.08030537  0.00000000  1
