# generated using pymatgen
data_LiF
_symmetry_space_group_name_H-M   'P 1'
_cell_length_a   20.46501273
_cell_length_b   20.46501273
_cell_length_c   10.55853020
_cell_angle_alpha   90.00000000
_cell_angle_beta   90.00000000
_cell_angle_gamma   120.00000000
_symmetry_Int_Tables_number   1
_chemical_formula_structural   LiF
_chemical_formula_sum   'Li108 F108'
_cell_volume   3829.64163528
_cell_formula_units_Z   108
loop_
 _symmetry_equiv_pos_site_id
 _symmetry_equiv_pos_as_xyz
  1  'x, y, z'
loop_
 _atom_site_type_symbol
 _atom_site_label
 _atom_site_symmetry_multiplicity
 _atom_site_fract_x
 _atom_site_fract_y
 _atom_site_fract_z
 _atom_site_occupancy
  F  F0  1  0.56039745  0.17713377  0.49560496  1
  F  F1  1  -0.17713377  0.38326369  0.49560496  1
  F  F2  1  -0.38326369  -0.56039745  0.49560496  1
  F  F3  1  0.17713377  0.56039745  0.00439504  1
  F  F4  1  0.38326369  -0.17713377  0.00439504  1
  F  F5  1  -0.56039745  -0.38326369  0.00439504  1
  F  F6  1  -0.56039745  -0.17713377  -0.49560496  1
  F  F7  1  0.17713377  -0.38326369  -0.49560496  1
  F  F8  1  0.38326369  0.56039745  -0.49560496  1
  F  F9  1  -0.17713377  -0.56039745  0.99560496  1
  F  F10  1  -0.38326369  0.17713377  0.99560496  1
  F  F11  1  0.56039745  0.38326369  0.99560496  1
  F  F12  1  1.22706412  0.51046710  0.82893830  1
  F  F13  1  0.48953290  0.71659702  0.82893830  1
  F  F14  1  0.28340298  -0.22706412  0.82893830  1
  F  F15  1  0.84380043  0.89373079  0.33772837  1
  F  F16  1  1.04993035  0.15619957  0.33772837  1
  F  F17  1  0.10626921  -0.04993035  0.33772837  1
  F  F18  1  0.10626921  0.15619957  -0.16227163  1
  F  F19  1  0.84380043  -0.04993035  -0.16227163  1
  F  F20  1  1.04993035  0.89373079  -0.16227163  1
  F  F21  1  0.48953290  -0.22706412  1.32893830  1
  F  F22  1  0.28340298  0.51046710  1.32893830  1
  F  F23  1  1.22706412  0.71659702  1.32893830  1
  F  F24  1  0.89373079  0.84380043  1.16227163  1
  F  F25  1  0.15619957  1.04993035  1.16227163  1
  F  F26  1  -0.04993035  0.10626921  1.16227163  1
  F  F27  1  0.51046710  1.22706412  0.67106170  1
  F  F28  1  0.71659702  0.48953290  0.67106170  1
  F  F29  1  -0.22706412  0.28340298  0.67106170  1
  F  F30  1  -0.22706412  0.48953290  0.17106170  1
  F  F31  1  0.51046710  0.28340298  0.17106170  1
  F  F32  1  0.71659702  1.22706412  0.17106170  1
  F  F33  1  0.15619957  0.10626921  1.66227163  1
  F  F34  1  -0.04993035  0.84380043  1.66227163  1
  F  F35  1  0.89373079  1.04993035  1.66227163  1
  F  F36  1  0.54583345  0.08160115  0.97700107  1
  F  F37  1  0.91839885  0.46423230  0.97700107  1
  F  F38  1  0.53576770  0.45416655  0.97700107  1
  F  F39  1  0.08160115  0.54583345  0.52299893  1
  F  F40  1  0.46423230  0.91839885  0.52299893  1
  F  F41  1  0.45416655  0.53576770  0.52299893  1
  F  F42  1  0.45416655  0.91839885  0.02299893  1
  F  F43  1  0.08160115  0.53576770  0.02299893  1
  F  F44  1  0.46423230  0.54583345  0.02299893  1
  F  F45  1  0.91839885  0.45416655  0.47700107  1
  F  F46  1  0.53576770  0.08160115  0.47700107  1
  F  F47  1  0.54583345  0.46423230  0.47700107  1
  F  F48  1  0.21250012  0.41493448  0.31033441  1
  F  F49  1  0.58506552  0.79756564  0.31033441  1
  F  F50  1  0.20243436  0.78749988  0.31033441  1
  F  F51  1  0.74826781  0.87916678  0.85633226  1
  F  F52  1  0.13089897  0.25173219  0.85633226  1
  F  F53  1  0.12083322  0.86910103  0.85633226  1
  F  F54  1  0.12083322  0.25173219  0.35633226  1
  F  F55  1  0.74826781  0.86910103  0.35633226  1
  F  F56  1  0.13089897  0.87916678  0.35633226  1
  F  F57  1  0.58506552  0.78749988  0.81033441  1
  F  F58  1  0.20243436  0.41493448  0.81033441  1
  F  F59  1  0.21250012  0.79756564  0.81033441  1
  F  F60  1  0.87916678  0.74826781  0.64366774  1
  F  F61  1  0.25173219  0.13089897  0.64366774  1
  F  F62  1  0.86910103  0.12083322  0.64366774  1
  F  F63  1  0.41493448  0.21250012  0.18966559  1
  F  F64  1  0.79756564  0.58506552  0.18966559  1
  F  F65  1  0.78749988  0.20243436  0.18966559  1
  F  F66  1  0.78749988  0.58506552  0.68966559  1
  F  F67  1  0.41493448  0.20243436  0.68966559  1
  F  F68  1  0.79756564  0.21250012  0.68966559  1
  F  F69  1  0.25173219  0.12083322  0.14366774  1
  F  F70  1  0.86910103  0.74826781  0.14366774  1
  F  F71  1  0.87916678  0.13089897  0.14366774  1
  F  F72  1  0.31259581  0.87701885  0.25701030  1
  F  F73  1  0.12298115  0.43557696  0.25701030  1
  F  F74  1  0.56442304  0.68740419  0.25701030  1
  F  F75  1  0.87701885  0.31259581  0.24298970  1
  F  F76  1  0.43557696  0.12298115  0.24298970  1
  F  F77  1  0.68740419  0.56442304  0.24298970  1
  F  F78  1  0.68740419  0.12298115  0.74298970  1
  F  F79  1  0.87701885  0.56442304  0.74298970  1
  F  F80  1  0.43557696  0.31259581  0.74298970  1
  F  F81  1  0.12298115  0.68740419  0.75701030  1
  F  F82  1  0.56442304  0.87701885  0.75701030  1
  F  F83  1  0.31259581  0.43557696  0.75701030  1
  F  F84  1  0.97926248  0.21035218  0.59034364  1
  F  F85  1  0.78964782  0.76891029  0.59034364  1
  F  F86  1  0.23108971  0.02073752  0.59034364  1
  F  F87  1  0.54368552  0.64592914  0.57632303  1
  F  F88  1  0.10224363  0.45631448  0.57632303  1
  F  F89  1  0.35407086  0.89775637  0.57632303  1
  F  F90  1  0.35407086  0.45631448  0.07632303  1
  F  F91  1  0.54368552  0.89775637  0.07632303  1
  F  F92  1  0.10224363  0.64592914  0.07632303  1
  F  F93  1  0.78964782  0.02073752  0.09034364  1
  F  F94  1  0.23108971  0.21035218  0.09034364  1
  F  F95  1  0.97926248  0.76891029  0.09034364  1
  F  F96  1  0.64592914  0.54368552  0.92367697  1
  F  F97  1  0.45631448  0.10224363  0.92367697  1
  F  F98  1  0.89775637  0.35407086  0.92367697  1
  F  F99  1  0.21035218  0.97926248  0.90965636  1
  F  F100  1  0.76891029  0.78964782  0.90965636  1
  F  F101  1  0.02073752  0.23108971  0.90965636  1
  F  F102  1  0.02073752  0.78964782  0.40965636  1
  F  F103  1  0.21035218  0.23108971  0.40965636  1
  F  F104  1  0.76891029  0.97926248  0.40965636  1
  F  F105  1  0.45631448  0.35407086  0.42367697  1
  F  F106  1  0.89775637  0.54368552  0.42367697  1
  F  F107  1  0.64592914  0.10224363  0.42367697  1
  Li  Li108  1  0.50000000  -0.00000000  0.00000000  1
  Li  Li109  1  0.00000000  0.50000000  0.00000000  1
  Li  Li110  1  0.50000000  0.50000000  0.00000000  1
  Li  Li111  1  0.00000000  0.50000000  0.50000000  1
  Li  Li112  1  0.50000000  -0.00000000  0.50000000  1
  Li  Li113  1  0.50000000  0.50000000  0.50000000  1
  Li  Li114  1  0.16666667  0.33333333  0.33333333  1
  Li  Li115  1  0.66666667  0.83333333  0.33333333  1
  Li  Li116  1  0.16666667  0.83333333  0.33333333  1
  Li  Li117  1  0.66666667  0.83333333  0.83333333  1
  Li  Li118  1  0.16666667  0.33333333  0.83333333  1
  Li  Li119  1  0.16666667  0.83333333  0.83333333  1
  Li  Li120  1  0.83333333  0.66666667  0.66666667  1
  Li  Li121  1  0.33333333  0.16666667  0.66666667  1
  Li  Li122  1  0.83333333  0.16666667  0.66666667  1
  Li  Li123  1  0.33333333  0.16666667  0.16666667  1
  Li  Li124  1  0.83333333  0.66666667  0.16666667  1
  Li  Li125  1  0.83333333  0.16666667  0.16666667  1
  Li  Li126  1  0.00000000  0.00000000  0.25000000  1
  Li  Li127  1  0.00000000  0.00000000  0.75000000  1
  Li  Li128  1  0.66666667  0.33333333  0.58333333  1
  Li  Li129  1  0.66666667  0.33333333  0.08333333  1
  Li  Li130  1  0.33333333  0.66666667  0.91666667  1
  Li  Li131  1  0.33333333  0.66666667  0.41666667  1
  Li  Li132  1  0.08098520  0.76432228  0.88178170  1
  Li  Li133  1  0.23567772  0.31666291  0.88178170  1
  Li  Li134  1  0.68333709  0.91901480  0.88178170  1
  Li  Li135  1  0.76432228  0.08098520  0.61821830  1
  Li  Li136  1  0.31666291  0.23567772  0.61821830  1
  Li  Li137  1  0.91901480  0.68333709  0.61821830  1
  Li  Li138  1  0.91901480  0.23567772  0.11821830  1
  Li  Li139  1  0.76432228  0.68333709  0.11821830  1
  Li  Li140  1  0.31666291  0.08098520  0.11821830  1
  Li  Li141  1  0.23567772  0.91901480  0.38178170  1
  Li  Li142  1  0.68333709  0.76432228  0.38178170  1
  Li  Li143  1  0.08098520  0.31666291  0.38178170  1
  Li  Li144  1  0.74765186  0.09765562  0.21511503  1
  Li  Li145  1  0.90234438  0.64999625  0.21511503  1
  Li  Li146  1  0.35000375  0.25234814  0.21511503  1
  Li  Li147  1  0.43098895  0.41431853  0.95155164  1
  Li  Li148  1  0.98332958  0.56901105  0.95155164  1
  Li  Li149  1  0.58568147  0.01667042  0.95155164  1
  Li  Li150  1  0.58568147  0.56901105  0.45155164  1
  Li  Li151  1  0.43098895  0.01667042  0.45155164  1
  Li  Li152  1  0.98332958  0.41431853  0.45155164  1
  Li  Li153  1  0.90234438  0.25234814  0.71511503  1
  Li  Li154  1  0.35000375  0.09765562  0.71511503  1
  Li  Li155  1  0.74765186  0.64999625  0.71511503  1
  Li  Li156  1  0.41431853  0.43098895  0.54844836  1
  Li  Li157  1  0.56901105  0.98332958  0.54844836  1
  Li  Li158  1  0.01667042  0.58568147  0.54844836  1
  Li  Li159  1  0.09765562  0.74765186  0.28488497  1
  Li  Li160  1  0.64999625  0.90234438  0.28488497  1
  Li  Li161  1  0.25234814  0.35000375  0.28488497  1
  Li  Li162  1  0.25234814  0.90234438  0.78488497  1
  Li  Li163  1  0.09765562  0.35000375  0.78488497  1
  Li  Li164  1  0.64999625  0.74765186  0.78488497  1
  Li  Li165  1  0.56901105  0.58568147  0.04844836  1
  Li  Li166  1  0.01667042  0.43098895  0.04844836  1
  Li  Li167  1  0.41431853  0.98332958  0.04844836  1
  Li  Li168  1  0.00000000  0.00000000  0.42513347  1
  Li  Li169  1  0.00000000  0.00000000  0.07486653  1
  Li  Li170  1  0.00000000  0.00000000  0.57486653  1
  Li  Li171  1  0.00000000  0.00000000  0.92513347  1
  Li  Li172  1  0.66666667  0.33333333  0.75846680  1
  Li  Li173  1  0.66666667  0.33333333  0.40819987  1
  Li  Li174  1  0.66666667  0.33333333  0.90819987  1
  Li  Li175  1  0.66666667  0.33333333  0.25846680  1
  Li  Li176  1  0.33333333  0.66666667  0.09180013  1
  Li  Li177  1  0.33333333  0.66666667  0.74153320  1
  Li  Li178  1  0.33333333  0.66666667  0.24153320  1
  Li  Li179  1  0.33333333  0.66666667  0.59180013  1
  Li  Li180  1  0.45930928  0.00000000  0.25000000  1
  Li  Li181  1  0.00000000  0.45930928  0.25000000  1
  Li  Li182  1  0.54069072  0.54069072  0.25000000  1
  Li  Li183  1  0.54069072  -0.00000000  0.75000000  1
  Li  Li184  1  0.00000000  0.54069072  0.75000000  1
  Li  Li185  1  0.45930928  0.45930928  0.75000000  1
  Li  Li186  1  0.12597595  0.33333333  0.58333333  1
  Li  Li187  1  0.66666667  0.79264261  0.58333333  1
  Li  Li188  1  0.20735739  0.87402405  0.58333333  1
  Li  Li189  1  0.20735739  0.33333333  0.08333333  1
  Li  Li190  1  0.66666667  0.87402405  0.08333333  1
  Li  Li191  1  0.12597595  0.79264261  0.08333333  1
  Li  Li192  1  0.79264261  0.66666667  0.91666667  1
  Li  Li193  1  0.33333333  0.12597595  0.91666667  1
  Li  Li194  1  0.87402405  0.20735739  0.91666667  1
  Li  Li195  1  0.87402405  0.66666667  0.41666667  1
  Li  Li196  1  0.33333333  0.20735739  0.41666667  1
  Li  Li197  1  0.79264261  0.12597595  0.41666667  1
  Li  Li198  1  0.55556163  0.00000000  0.25000000  1
  Li  Li199  1  0.00000000  0.55556163  0.25000000  1
  Li  Li200  1  0.44443837  0.44443837  0.25000000  1
  Li  Li201  1  0.44443837  -0.00000000  0.75000000  1
  Li  Li202  1  0.00000000  0.44443837  0.75000000  1
  Li  Li203  1  0.55556163  0.55556163  0.75000000  1
  Li  Li204  1  0.22222830  0.33333333  0.58333333  1
  Li  Li205  1  0.66666667  0.88889497  0.58333333  1
  Li  Li206  1  0.11110503  0.77777170  0.58333333  1
  Li  Li207  1  0.11110503  0.33333333  0.08333333  1
  Li  Li208  1  0.66666667  0.77777170  0.08333333  1
  Li  Li209  1  0.22222830  0.88889497  0.08333333  1
  Li  Li210  1  0.88889497  0.66666667  0.91666667  1
  Li  Li211  1  0.33333333  0.22222830  0.91666667  1
  Li  Li212  1  0.77777170  0.11110503  0.91666667  1
  Li  Li213  1  0.77777170  0.66666667  0.41666667  1
  Li  Li214  1  0.33333333  0.11110503  0.41666667  1
  Li  Li215  1  0.88889497  0.22222830  0.41666667  1
