# generated using pymatgen
data_LiY2Te4P3
_symmetry_space_group_name_H-M   'P 1'
_cell_length_a   4.19283512
_cell_length_b   4.31332218
_cell_length_c   6.91125555
_cell_angle_alpha   96.29699175
_cell_angle_beta   103.71353890
_cell_angle_gamma   115.29251315
_symmetry_Int_Tables_number   1
_chemical_formula_structural   LiY2Te4P3
_chemical_formula_sum   'Li1 Y2 Te4 P3'
_cell_volume   106.57340170
_cell_formula_units_Z   1
loop_
 _symmetry_equiv_pos_site_id
 _symmetry_equiv_pos_as_xyz
  1  'x, y, z'
loop_
 _atom_site_type_symbol
 _atom_site_label
 _atom_site_symmetry_multiplicity
 _atom_site_fract_x
 _atom_site_fract_y
 _atom_site_fract_z
 _atom_site_occupancy
  P  P0  1  0.00000000  0.00000000  0.00000000  1
  P  P1  1  0.50000000  0.50000000  0.50000000  1
  P  P2  1  0.50000000  0.50000000  0.00000000  1
  Te  Te3  1  0.50000000  0.00000000  0.50000000  1
  Te  Te4  1  0.00000000  0.50000000  0.50000000  1
  Te  Te5  1  0.73898121  0.64626230  0.76163203  1
  Te  Te6  1  0.14575917  0.85936507  0.67098807  1
  Li  Li7  1  0.06120402  0.55605031  0.87293989  1
  Y  Y8  1  0.29705743  0.74457749  0.84083472  1
  Y  Y9  1  0.37619052  0.42471804  0.66084144  1
