# generated using pymatgen
data_LiYAs2P
_symmetry_space_group_name_H-M   'P 1'
_cell_length_a   5.46810642
_cell_length_b   5.49829016
_cell_length_c   6.93841381
_cell_angle_alpha   93.49280295
_cell_angle_beta   97.80985493
_cell_angle_gamma   104.27462156
_symmetry_Int_Tables_number   1
_chemical_formula_structural   LiYAs2P
_chemical_formula_sum   'Li2 Y2 As4 P2'
_cell_volume   199.31818795
_cell_formula_units_Z   2
loop_
 _symmetry_equiv_pos_site_id
 _symmetry_equiv_pos_as_xyz
  1  'x, y, z'
loop_
 _atom_site_type_symbol
 _atom_site_label
 _atom_site_symmetry_multiplicity
 _atom_site_fract_x
 _atom_site_fract_y
 _atom_site_fract_z
 _atom_site_occupancy
  P  P0  1  0.00000000  0.00000000  0.00000000  1
  P  P1  1  0.33300000  0.66700000  0.25000000  1
  As  As2  1  0.66700000  0.33300000  0.50000000  1
  As  As3  1  0.00000000  0.00000000  0.75000000  1
  As  As4  1  0.97818850  0.01610723  0.96922105  1
  As  As5  1  0.92847051  0.90599265  0.90033677  1
  Li  Li6  1  0.35743538  0.66505363  0.04870916  1
  Li  Li7  1  0.73562430  0.52941713  0.35634444  1
  Y  Y8  1  0.64661926  0.57938186  0.40484546  1
  Y  Y9  1  0.30093630  0.95690169  0.15773698  1
