# generated using pymatgen
data_Li2Ca3F8
_symmetry_space_group_name_H-M   'P 1'
_cell_length_a   17.81161845
_cell_length_b   17.81161845
_cell_length_c   4.81466020
_cell_angle_alpha   90.00000000
_cell_angle_beta   90.00000000
_cell_angle_gamma   90.00000000
_symmetry_Int_Tables_number   1
_chemical_formula_structural   Li2Ca3F8
_chemical_formula_sum   'Li16 Ca24 F64'
_cell_volume   1527.46901214
_cell_formula_units_Z   8
loop_
 _symmetry_equiv_pos_site_id
 _symmetry_equiv_pos_as_xyz
  1  'x, y, z'
loop_
 _atom_site_type_symbol
 _atom_site_label
 _atom_site_symmetry_multiplicity
 _atom_site_fract_x
 _atom_site_fract_y
 _atom_site_fract_z
 _atom_site_occupancy
  Ca  Ca0  1  0.37015754  0.50000000  0.50000000  1
  Ca  Ca1  1  0.62984246  0.50000000  0.50000000  1
  Ca  Ca2  1  0.50000000  0.37015754  0.50000000  1
  Ca  Ca3  1  0.50000000  0.62984246  0.50000000  1
  Ca  Ca4  1  0.19273663  0.19273663  0.00000000  1
  Ca  Ca5  1  0.80726337  0.80726337  0.00000000  1
  Ca  Ca6  1  0.80726337  0.19273663  0.00000000  1
  Ca  Ca7  1  0.19273663  0.80726337  0.00000000  1
  Ca  Ca8  1  0.78506307  0.68205841  0.81286133  1
  Ca  Ca9  1  0.21493693  0.31794159  0.81286133  1
  Ca  Ca10  1  0.31794159  0.78506307  0.81286133  1
  Ca  Ca11  1  0.68205841  0.21493693  0.81286133  1
  Ca  Ca12  1  0.21493693  0.68205841  0.18713867  1
  Ca  Ca13  1  0.78506307  0.31794159  0.18713867  1
  Ca  Ca14  1  0.68205841  0.78506307  0.18713867  1
  Ca  Ca15  1  0.31794159  0.21493693  0.18713867  1
  Ca  Ca16  1  0.21493693  0.31794159  0.18713867  1
  Ca  Ca17  1  0.78506307  0.68205841  0.18713867  1
  Ca  Ca18  1  0.68205841  0.21493693  0.18713867  1
  Ca  Ca19  1  0.31794159  0.78506307  0.18713867  1
  Ca  Ca20  1  0.78506307  0.31794159  0.81286133  1
  Ca  Ca21  1  0.21493693  0.68205841  0.81286133  1
  Ca  Ca22  1  0.31794159  0.21493693  0.81286133  1
  Ca  Ca23  1  0.68205841  0.78506307  0.81286133  1
  F  F24  1  0.62091299  0.76011354  0.50000000  1
  F  F25  1  0.37908701  0.23988646  0.50000000  1
  F  F26  1  0.23988646  0.62091299  0.50000000  1
  F  F27  1  0.76011354  0.37908701  0.50000000  1
  F  F28  1  0.37908701  0.76011354  0.50000000  1
  F  F29  1  0.62091299  0.23988646  0.50000000  1
  F  F30  1  0.76011354  0.62091299  0.50000000  1
  F  F31  1  0.23988646  0.37908701  0.50000000  1
  F  F32  1  0.06936362  0.51758814  0.40220406  1
  F  F33  1  -0.06936362  -0.51758814  0.40220406  1
  F  F34  1  -0.51758814  0.06936362  0.40220406  1
  F  F35  1  0.51758814  -0.06936362  0.40220406  1
  F  F36  1  -0.06936362  0.51758814  -0.40220406  1
  F  F37  1  0.06936362  -0.51758814  -0.40220406  1
  F  F38  1  0.51758814  0.06936362  -0.40220406  1
  F  F39  1  -0.51758814  -0.06936362  -0.40220406  1
  F  F40  1  -0.06936362  -0.51758814  -0.40220406  1
  F  F41  1  0.06936362  0.51758814  -0.40220406  1
  F  F42  1  0.51758814  -0.06936362  -0.40220406  1
  F  F43  1  -0.51758814  0.06936362  -0.40220406  1
  F  F44  1  0.06936362  -0.51758814  0.40220406  1
  F  F45  1  -0.06936362  0.51758814  0.40220406  1
  F  F46  1  -0.51758814  -0.06936362  0.40220406  1
  F  F47  1  0.51758814  0.06936362  0.40220406  1
  F  F48  1  0.78450206  0.25191989  0.28410983  1
  F  F49  1  0.21549794  0.74808011  0.28410983  1
  F  F50  1  0.74808011  0.78450206  0.28410983  1
  F  F51  1  0.25191989  0.21549794  0.28410983  1
  F  F52  1  0.21549794  0.25191989  0.71589017  1
  F  F53  1  0.78450206  0.74808011  0.71589017  1
  F  F54  1  0.25191989  0.78450206  0.71589017  1
  F  F55  1  0.74808011  0.21549794  0.71589017  1
  F  F56  1  0.21549794  0.74808011  0.71589017  1
  F  F57  1  0.78450206  0.25191989  0.71589017  1
  F  F58  1  0.25191989  0.21549794  0.71589017  1
  F  F59  1  0.74808011  0.78450206  0.71589017  1
  F  F60  1  0.78450206  0.74808011  0.28410983  1
  F  F61  1  0.21549794  0.25191989  0.28410983  1
  F  F62  1  0.74808011  0.21549794  0.28410983  1
  F  F63  1  0.25191989  0.78450206  0.28410983  1
  F  F64  1  0.00000000  0.00000000  0.50000000  1
  F  F65  1  0.72601406  -0.00000000  0.00000000  1
  F  F66  1  0.27398594  0.00000000  0.00000000  1
  F  F67  1  0.00000000  0.72601406  0.00000000  1
  F  F68  1  0.00000000  0.27398594  0.00000000  1
  F  F69  1  0.23306879  0.43326945  0.38522804  1
  F  F70  1  0.76693121  0.56673055  0.38522804  1
  F  F71  1  0.56673055  0.23306879  0.38522804  1
  F  F72  1  0.43326945  0.76693121  0.38522804  1
  F  F73  1  0.76693121  0.43326945  0.61477196  1
  F  F74  1  0.23306879  0.56673055  0.61477196  1
  F  F75  1  0.43326945  0.23306879  0.61477196  1
  F  F76  1  0.56673055  0.76693121  0.61477196  1
  F  F77  1  0.76693121  0.56673055  0.61477196  1
  F  F78  1  0.23306879  0.43326945  0.61477196  1
  F  F79  1  0.43326945  0.76693121  0.61477196  1
  F  F80  1  0.56673055  0.23306879  0.61477196  1
  F  F81  1  0.23306879  0.56673055  0.38522804  1
  F  F82  1  0.76693121  0.43326945  0.38522804  1
  F  F83  1  0.56673055  0.76693121  0.38522804  1
  F  F84  1  0.43326945  0.23306879  0.38522804  1
  F  F85  1  0.00000000  0.00000000  0.68142503  1
  F  F86  1  0.00000000  0.00000000  0.31857497  1
  F  F87  1  0.50000000  0.50000000  0.00000000  1
  Li  Li88  1  0.80057901  0.00000000  0.15296724  1
  Li  Li89  1  0.19942099  -0.00000000  0.15296724  1
  Li  Li90  1  0.00000000  0.80057901  0.15296724  1
  Li  Li91  1  0.00000000  0.19942099  0.15296724  1
  Li  Li92  1  0.19942099  -0.00000000  0.84703276  1
  Li  Li93  1  0.80057901  0.00000000  0.84703276  1
  Li  Li94  1  0.00000000  0.80057901  0.84703276  1
  Li  Li95  1  0.00000000  0.19942099  0.84703276  1
  Li  Li96  1  0.00000000  0.50000000  0.20438998  1
  Li  Li97  1  0.50000000  0.00000000  0.20438998  1
  Li  Li98  1  0.00000000  0.50000000  0.79561002  1
  Li  Li99  1  0.50000000  0.00000000  0.79561002  1
  Li  Li100  1  0.00000000  0.50000000  0.50000000  1
  Li  Li101  1  0.50000000  0.00000000  0.50000000  1
  Li  Li102  1  0.00000000  0.00000000  0.00000000  1
  Li  Li103  1  0.50000000  0.50000000  0.50000000  1
