# generated using pymatgen
data_Li2Y2P3Se
_symmetry_space_group_name_H-M   'P 1'
_cell_length_a   4.29833509
_cell_length_b   4.50841343
_cell_length_c   6.55719473
_cell_angle_alpha   95.68568000
_cell_angle_beta   101.22976647
_cell_angle_gamma   111.02975057
_symmetry_Int_Tables_number   1
_chemical_formula_structural   Li2Y2P3Se
_chemical_formula_sum   'Li2 Y2 P3 Se1'
_cell_volume   114.33715433
_cell_formula_units_Z   1
loop_
 _symmetry_equiv_pos_site_id
 _symmetry_equiv_pos_as_xyz
  1  'x, y, z'
loop_
 _atom_site_type_symbol
 _atom_site_label
 _atom_site_symmetry_multiplicity
 _atom_site_fract_x
 _atom_site_fract_y
 _atom_site_fract_z
 _atom_site_occupancy
  P  P0  1  0.12500000  0.12500000  0.12500000  1
  P  P1  1  0.50000000  0.50000000  0.50000000  1
  P  P2  1  0.25000000  0.25000000  0.25000000  1
  Se  Se3  1  0.75000000  0.75000000  0.75000000  1
  Li  Li4  1  0.75064426  0.93167960  0.48319686  1
  Li  Li5  1  0.10965209  0.74550070  0.74348006  1
  Y  Y6  1  0.19078966  0.18748970  0.82129088  1
  Y  Y7  1  0.44842116  0.48378961  0.49182726  1
