# generated using pymatgen
data_LiF
_symmetry_space_group_name_H-M   'P 1'
_cell_length_a   6.45671487
_cell_length_b   4.94074392
_cell_length_c   11.08033426
_cell_angle_alpha   90.00000000
_cell_angle_beta   90.00000000
_cell_angle_gamma   90.00000000
_symmetry_Int_Tables_number   1
_chemical_formula_structural   LiF
_chemical_formula_sum   'Li14 F14'
_cell_volume   353.47346293
_cell_formula_units_Z   14
loop_
 _symmetry_equiv_pos_site_id
 _symmetry_equiv_pos_as_xyz
  1  'x, y, z'
loop_
 _atom_site_type_symbol
 _atom_site_label
 _atom_site_symmetry_multiplicity
 _atom_site_fract_x
 _atom_site_fract_y
 _atom_site_fract_z
 _atom_site_occupancy
  F  F0  1  0.69458525  0.97194017  -0.00000000  1
  F  F1  1  0.30541475  0.02805983  -0.00000000  1
  F  F2  1  0.80541475  0.47194017  0.50000000  1
  F  F3  1  0.19458525  0.52805983  0.50000000  1
  F  F4  1  0.58445148  0.43734699  0.83268581  1
  F  F5  1  -0.58445148  -0.43734699  0.83268581  1
  F  F6  1  -0.08445148  0.93734699  -0.33268581  1
  F  F7  1  1.08445148  0.06265301  -0.33268581  1
  F  F8  1  -0.58445148  -0.43734699  -0.83268581  1
  F  F9  1  0.58445148  0.43734699  -0.83268581  1
  F  F10  1  1.08445148  0.06265301  1.33268581  1
  F  F11  1  -0.08445148  0.93734699  1.33268581  1
  F  F12  1  0.00000000  0.50000000  0.50000000  1
  F  F13  1  0.50000000  0.00000000  0.00000000  1
  Li  Li14  1  0.00000000  0.00000000  0.00000000  1
  Li  Li15  1  0.50000000  0.50000000  0.50000000  1
  Li  Li16  1  0.08007116  0.85985126  0.11959417  1
  Li  Li17  1  0.91992884  0.14014874  0.11959417  1
  Li  Li18  1  0.41992884  0.35985126  0.38040583  1
  Li  Li19  1  0.58007116  0.64014874  0.38040583  1
  Li  Li20  1  0.91992884  0.14014874  0.88040583  1
  Li  Li21  1  0.08007116  0.85985126  0.88040583  1
  Li  Li22  1  0.58007116  0.64014874  0.61959417  1
  Li  Li23  1  0.41992884  0.35985126  0.61959417  1
  Li  Li24  1  0.81954928  0.84745834  0.00000000  1
  Li  Li25  1  0.18045072  0.15254166  -0.00000000  1
  Li  Li26  1  0.68045072  0.34745834  0.50000000  1
  Li  Li27  1  0.31954928  0.65254166  0.50000000  1
