# generated using pymatgen
data_Li4TeF2
_symmetry_space_group_name_H-M   'P 1'
_cell_length_a   18.74490877
_cell_length_b   18.74490877
_cell_length_c   10.53812290
_cell_angle_alpha   90.00000000
_cell_angle_beta   90.00000000
_cell_angle_gamma   90.00000000
_symmetry_Int_Tables_number   1
_chemical_formula_structural   Li4TeF2
_chemical_formula_sum   'Li96 Te24 F48'
_cell_volume   3702.79715430
_cell_formula_units_Z   24
loop_
 _symmetry_equiv_pos_site_id
 _symmetry_equiv_pos_as_xyz
  1  'x, y, z'
loop_
 _atom_site_type_symbol
 _atom_site_label
 _atom_site_symmetry_multiplicity
 _atom_site_fract_x
 _atom_site_fract_y
 _atom_site_fract_z
 _atom_site_occupancy
  F  F0  1  0.80033677  0.35531881  -0.00000000  1
  F  F1  1  0.19966323  0.64468119  -0.00000000  1
  F  F2  1  0.64468119  0.80033677  0.00000000  1
  F  F3  1  0.35531881  0.19966323  0.00000000  1
  F  F4  1  0.19966323  0.35531881  0.00000000  1
  F  F5  1  0.80033677  0.64468119  0.00000000  1
  F  F6  1  0.35531881  0.80033677  -0.00000000  1
  F  F7  1  0.64468119  0.19966323  0.00000000  1
  F  F8  1  0.71583096  0.76265059  0.96638223  1
  F  F9  1  -0.71583096  -0.76265059  0.96638223  1
  F  F10  1  -0.76265059  0.71583096  0.96638223  1
  F  F11  1  0.76265059  -0.71583096  0.96638223  1
  F  F12  1  -0.71583096  0.76265059  -0.96638223  1
  F  F13  1  0.71583096  -0.76265059  -0.96638223  1
  F  F14  1  0.76265059  0.71583096  -0.96638223  1
  F  F15  1  -0.76265059  -0.71583096  -0.96638223  1
  F  F16  1  -0.71583096  -0.76265059  -0.96638223  1
  F  F17  1  0.71583096  0.76265059  -0.96638223  1
  F  F18  1  0.76265059  -0.71583096  -0.96638223  1
  F  F19  1  -0.76265059  0.71583096  -0.96638223  1
  F  F20  1  0.71583096  -0.76265059  0.96638223  1
  F  F21  1  -0.71583096  0.76265059  0.96638223  1
  F  F22  1  -0.76265059  -0.71583096  0.96638223  1
  F  F23  1  0.76265059  0.71583096  0.96638223  1
  F  F24  1  0.70249302  0.00000000  0.50000000  1
  F  F25  1  0.29750698  0.00000000  0.50000000  1
  F  F26  1  0.00000000  0.70249302  0.50000000  1
  F  F27  1  0.00000000  0.29750698  0.50000000  1
  F  F28  1  0.26239400  0.29956316  0.19594849  1
  F  F29  1  0.73760600  0.70043684  0.19594849  1
  F  F30  1  0.70043684  0.26239400  0.19594849  1
  F  F31  1  0.29956316  0.73760600  0.19594849  1
  F  F32  1  0.73760600  0.29956316  0.80405151  1
  F  F33  1  0.26239400  0.70043684  0.80405151  1
  F  F34  1  0.29956316  0.26239400  0.80405151  1
  F  F35  1  0.70043684  0.73760600  0.80405151  1
  F  F36  1  0.73760600  0.70043684  0.80405151  1
  F  F37  1  0.26239400  0.29956316  0.80405151  1
  F  F38  1  0.29956316  0.73760600  0.80405151  1
  F  F39  1  0.70043684  0.26239400  0.80405151  1
  F  F40  1  0.26239400  0.70043684  0.19594849  1
  F  F41  1  0.73760600  0.29956316  0.19594849  1
  F  F42  1  0.70043684  0.73760600  0.19594849  1
  F  F43  1  0.29956316  0.26239400  0.19594849  1
  F  F44  1  0.28289611  0.50000000  -0.00000000  1
  F  F45  1  0.71710389  0.50000000  -0.00000000  1
  F  F46  1  0.50000000  0.28289611  -0.00000000  1
  F  F47  1  0.50000000  0.71710389  -0.00000000  1
  Li  Li48  1  0.62081733  0.44761459  0.57396603  1
  Li  Li49  1  0.37918267  0.55238541  0.57396603  1
  Li  Li50  1  0.55238541  0.62081733  0.57396603  1
  Li  Li51  1  0.44761459  0.37918267  0.57396603  1
  Li  Li52  1  0.37918267  0.44761459  0.42603397  1
  Li  Li53  1  0.62081733  0.55238541  0.42603397  1
  Li  Li54  1  0.44761459  0.62081733  0.42603397  1
  Li  Li55  1  0.55238541  0.37918267  0.42603397  1
  Li  Li56  1  0.37918267  0.55238541  0.42603397  1
  Li  Li57  1  0.62081733  0.44761459  0.42603397  1
  Li  Li58  1  0.44761459  0.37918267  0.42603397  1
  Li  Li59  1  0.55238541  0.62081733  0.42603397  1
  Li  Li60  1  0.62081733  0.55238541  0.57396603  1
  Li  Li61  1  0.37918267  0.44761459  0.57396603  1
  Li  Li62  1  0.55238541  0.37918267  0.57396603  1
  Li  Li63  1  0.44761459  0.62081733  0.57396603  1
  Li  Li64  1  0.29944472  0.93767048  0.30737462  1
  Li  Li65  1  0.70055528  0.06232952  0.30737462  1
  Li  Li66  1  0.06232952  0.29944472  0.30737462  1
  Li  Li67  1  0.93767048  0.70055528  0.30737462  1
  Li  Li68  1  0.70055528  0.93767048  0.69262538  1
  Li  Li69  1  0.29944472  0.06232952  0.69262538  1
  Li  Li70  1  0.93767048  0.29944472  0.69262538  1
  Li  Li71  1  0.06232952  0.70055528  0.69262538  1
  Li  Li72  1  0.70055528  0.06232952  0.69262538  1
  Li  Li73  1  0.29944472  0.93767048  0.69262538  1
  Li  Li74  1  0.93767048  0.70055528  0.69262538  1
  Li  Li75  1  0.06232952  0.29944472  0.69262538  1
  Li  Li76  1  0.29944472  0.06232952  0.30737462  1
  Li  Li77  1  0.70055528  0.93767048  0.30737462  1
  Li  Li78  1  0.06232952  0.70055528  0.30737462  1
  Li  Li79  1  0.93767048  0.29944472  0.30737462  1
  Li  Li80  1  0.72067534  0.09988612  0.06593621  1
  Li  Li81  1  0.27932466  0.90011388  0.06593621  1
  Li  Li82  1  0.90011388  0.72067534  0.06593621  1
  Li  Li83  1  0.09988612  0.27932466  0.06593621  1
  Li  Li84  1  0.27932466  0.09988612  0.93406379  1
  Li  Li85  1  0.72067534  0.90011388  0.93406379  1
  Li  Li86  1  0.09988612  0.72067534  0.93406379  1
  Li  Li87  1  0.90011388  0.27932466  0.93406379  1
  Li  Li88  1  0.27932466  0.90011388  0.93406379  1
  Li  Li89  1  0.72067534  0.09988612  0.93406379  1
  Li  Li90  1  0.09988612  0.27932466  0.93406379  1
  Li  Li91  1  0.90011388  0.72067534  0.93406379  1
  Li  Li92  1  0.72067534  0.90011388  0.06593621  1
  Li  Li93  1  0.27932466  0.09988612  0.06593621  1
  Li  Li94  1  0.90011388  0.27932466  0.06593621  1
  Li  Li95  1  0.09988612  0.72067534  0.06593621  1
  Li  Li96  1  0.04302346  0.86604646  0.43844448  1
  Li  Li97  1  0.95697654  0.13395354  0.43844448  1
  Li  Li98  1  0.13395354  0.04302346  0.43844448  1
  Li  Li99  1  0.86604646  0.95697654  0.43844448  1
  Li  Li100  1  0.95697654  0.86604646  0.56155552  1
  Li  Li101  1  0.04302346  0.13395354  0.56155552  1
  Li  Li102  1  0.86604646  0.04302346  0.56155552  1
  Li  Li103  1  0.13395354  0.95697654  0.56155552  1
  Li  Li104  1  0.95697654  0.13395354  0.56155552  1
  Li  Li105  1  0.04302346  0.86604646  0.56155552  1
  Li  Li106  1  0.86604646  0.95697654  0.56155552  1
  Li  Li107  1  0.13395354  0.04302346  0.56155552  1
  Li  Li108  1  0.04302346  0.13395354  0.43844448  1
  Li  Li109  1  0.95697654  0.86604646  0.43844448  1
  Li  Li110  1  0.13395354  0.95697654  0.43844448  1
  Li  Li111  1  0.86604646  0.04302346  0.43844448  1
  Li  Li112  1  0.24617122  0.50000000  0.63254944  1
  Li  Li113  1  0.75382878  0.50000000  0.63254944  1
  Li  Li114  1  0.50000000  0.24617122  0.63254944  1
  Li  Li115  1  0.50000000  0.75382878  0.63254944  1
  Li  Li116  1  0.75382878  0.50000000  0.36745056  1
  Li  Li117  1  0.24617122  0.50000000  0.36745056  1
  Li  Li118  1  0.50000000  0.24617122  0.36745056  1
  Li  Li119  1  0.50000000  0.75382878  0.36745056  1
  Li  Li120  1  0.75702441  0.00000000  0.00000000  1
  Li  Li121  1  0.24297559  0.00000000  -0.00000000  1
  Li  Li122  1  0.00000000  0.75702441  -0.00000000  1
  Li  Li123  1  0.00000000  0.24297559  -0.00000000  1
  Li  Li124  1  0.21545469  0.00000000  0.50000000  1
  Li  Li125  1  0.78454531  0.00000000  0.50000000  1
  Li  Li126  1  0.00000000  0.21545469  0.50000000  1
  Li  Li127  1  0.00000000  0.78454531  0.50000000  1
  Li  Li128  1  0.72489794  0.00000000  0.26774051  1
  Li  Li129  1  0.27510206  0.00000000  0.26774051  1
  Li  Li130  1  0.00000000  0.72489794  0.26774051  1
  Li  Li131  1  0.00000000  0.27510206  0.26774051  1
  Li  Li132  1  0.27510206  0.00000000  0.73225949  1
  Li  Li133  1  0.72489794  0.00000000  0.73225949  1
  Li  Li134  1  0.00000000  0.72489794  0.73225949  1
  Li  Li135  1  0.00000000  0.27510206  0.73225949  1
  Li  Li136  1  0.71347680  0.15995119  -0.00000000  1
  Li  Li137  1  0.28652320  0.84004881  -0.00000000  1
  Li  Li138  1  0.84004881  0.71347680  -0.00000000  1
  Li  Li139  1  0.15995119  0.28652320  0.00000000  1
  Li  Li140  1  0.28652320  0.15995119  0.00000000  1
  Li  Li141  1  0.71347680  0.84004881  -0.00000000  1
  Li  Li142  1  0.15995119  0.71347680  -0.00000000  1
  Li  Li143  1  0.84004881  0.28652320  -0.00000000  1
  Te  Te144  1  0.42207482  0.50000000  0.00000000  1
  Te  Te145  1  0.57792518  0.50000000  -0.00000000  1
  Te  Te146  1  0.50000000  0.42207482  0.00000000  1
  Te  Te147  1  0.50000000  0.57792518  -0.00000000  1
  Te  Te148  1  0.67027372  0.18077339  0.50000000  1
  Te  Te149  1  0.32972628  0.81922661  0.50000000  1
  Te  Te150  1  0.81922661  0.67027372  0.50000000  1
  Te  Te151  1  0.18077339  0.32972628  0.50000000  1
  Te  Te152  1  0.32972628  0.18077339  0.50000000  1
  Te  Te153  1  0.67027372  0.81922661  0.50000000  1
  Te  Te154  1  0.18077339  0.67027372  0.50000000  1
  Te  Te155  1  0.81922661  0.32972628  0.50000000  1
  Te  Te156  1  0.50000000  0.50000000  0.00000000  1
  Te  Te157  1  0.04843889  0.04843889  0.00000000  1
  Te  Te158  1  0.95156111  0.95156111  0.00000000  1
  Te  Te159  1  0.95156111  0.04843889  0.00000000  1
  Te  Te160  1  0.04843889  0.95156111  -0.00000000  1
  Te  Te161  1  0.50000000  0.50000000  0.50000000  1
  Te  Te162  1  0.28030493  0.50000000  0.50000000  1
  Te  Te163  1  0.71969507  0.50000000  0.50000000  1
  Te  Te164  1  0.50000000  0.28030493  0.50000000  1
  Te  Te165  1  0.50000000  0.71969507  0.50000000  1
  Te  Te166  1  0.00000000  0.50000000  -0.00000000  1
  Te  Te167  1  0.50000000  0.00000000  -0.00000000  1
