# generated using pymatgen
data_LiF
_symmetry_space_group_name_H-M   'P 1'
_cell_length_a   5.86404701
_cell_length_b   5.86404701
_cell_length_c   13.16305837
_cell_angle_alpha   90.00000000
_cell_angle_beta   90.00000000
_cell_angle_gamma   90.00000000
_symmetry_Int_Tables_number   1
_chemical_formula_structural   LiF
_chemical_formula_sum   'Li23 F23'
_cell_volume   452.63871077
_cell_formula_units_Z   23
loop_
 _symmetry_equiv_pos_site_id
 _symmetry_equiv_pos_as_xyz
  1  'x, y, z'
loop_
 _atom_site_type_symbol
 _atom_site_label
 _atom_site_symmetry_multiplicity
 _atom_site_fract_x
 _atom_site_fract_y
 _atom_site_fract_z
 _atom_site_occupancy
  F  F0  1  0.50000000  0.50000000  0.03074994  1
  F  F1  1  0.50000000  0.50000000  0.96925006  1
  F  F2  1  0.59705377  0.14896447  0.50000000  1
  F  F3  1  0.40294623  0.85103553  0.50000000  1
  F  F4  1  0.85103553  0.59705377  0.50000000  1
  F  F5  1  0.14896447  0.40294623  0.50000000  1
  F  F6  1  0.40294623  0.14896447  0.50000000  1
  F  F7  1  0.59705377  0.85103553  0.50000000  1
  F  F8  1  0.14896447  0.59705377  0.50000000  1
  F  F9  1  0.85103553  0.40294623  0.50000000  1
  F  F10  1  0.25559452  0.25559452  0.00000000  1
  F  F11  1  0.74440548  0.74440548  0.00000000  1
  F  F12  1  0.74440548  0.25559452  -0.00000000  1
  F  F13  1  0.25559452  0.74440548  -0.00000000  1
  F  F14  1  0.00000000  0.00000000  0.00000000  1
  F  F15  1  0.00000000  0.50000000  0.50000000  1
  F  F16  1  0.50000000  0.00000000  0.50000000  1
  F  F17  1  0.78936646  -0.00000000  0.00000000  1
  F  F18  1  0.21063354  -0.00000000  0.00000000  1
  F  F19  1  0.00000000  0.78936646  -0.00000000  1
  F  F20  1  0.00000000  0.21063354  -0.00000000  1
  F  F21  1  0.50000000  0.50000000  0.13273583  1
  F  F22  1  0.50000000  0.50000000  0.86726417  1
  Li  Li23  1  0.88597398  0.37187172  0.75809616  1
  Li  Li24  1  -0.88597398  -0.37187172  0.75809616  1
  Li  Li25  1  -0.37187172  0.88597398  0.75809616  1
  Li  Li26  1  0.37187172  -0.88597398  0.75809616  1
  Li  Li27  1  -0.88597398  0.37187172  -0.75809616  1
  Li  Li28  1  0.88597398  -0.37187172  -0.75809616  1
  Li  Li29  1  0.37187172  0.88597398  -0.75809616  1
  Li  Li30  1  -0.37187172  -0.88597398  -0.75809616  1
  Li  Li31  1  -0.88597398  -0.37187172  -0.75809616  1
  Li  Li32  1  0.88597398  0.37187172  -0.75809616  1
  Li  Li33  1  0.37187172  -0.88597398  -0.75809616  1
  Li  Li34  1  -0.37187172  0.88597398  -0.75809616  1
  Li  Li35  1  0.88597398  -0.37187172  0.75809616  1
  Li  Li36  1  -0.88597398  0.37187172  0.75809616  1
  Li  Li37  1  -0.37187172  -0.88597398  0.75809616  1
  Li  Li38  1  0.37187172  0.88597398  0.75809616  1
  Li  Li39  1  0.27369550  0.50000000  0.00000000  1
  Li  Li40  1  0.72630450  0.50000000  0.00000000  1
  Li  Li41  1  0.50000000  0.27369550  0.00000000  1
  Li  Li42  1  0.50000000  0.72630450  0.00000000  1
  Li  Li43  1  0.00000000  0.50000000  -0.00000000  1
  Li  Li44  1  0.50000000  0.00000000  0.00000000  1
  Li  Li45  1  0.00000000  0.00000000  0.50000000  1
