# generated using pymatgen
data_LiF
_symmetry_space_group_name_H-M   'P 1'
_cell_length_a   11.33365395
_cell_length_b   11.33365395
_cell_length_c   18.31871351
_cell_angle_alpha   90.00000000
_cell_angle_beta   90.00000000
_cell_angle_gamma   90.00000000
_symmetry_Int_Tables_number   1
_chemical_formula_structural   LiF
_chemical_formula_sum   'Li64 F64'
_cell_volume   2353.07010817
_cell_formula_units_Z   64
loop_
 _symmetry_equiv_pos_site_id
 _symmetry_equiv_pos_as_xyz
  1  'x, y, z'
loop_
 _atom_site_type_symbol
 _atom_site_label
 _atom_site_symmetry_multiplicity
 _atom_site_fract_x
 _atom_site_fract_y
 _atom_site_fract_z
 _atom_site_occupancy
  F  F0  1  0.38825523  0.27111195  0.39203393  1
  F  F1  1  0.11174477  0.72888805  0.89203393  1
  F  F2  1  0.97888805  0.13825523  0.64203393  1
  F  F3  1  0.52111195  0.86174477  0.14203393  1
  F  F4  1  0.11174477  0.27111195  0.60796607  1
  F  F5  1  0.38825523  0.72888805  0.10796607  1
  F  F6  1  0.52111195  0.13825523  0.35796607  1
  F  F7  1  0.97888805  0.86174477  0.85796607  1
  F  F8  1  0.61174477  0.72888805  0.60796607  1
  F  F9  1  0.88825523  0.27111195  0.10796607  1
  F  F10  1  0.02111195  0.86174477  0.35796607  1
  F  F11  1  0.47888805  0.13825523  0.85796607  1
  F  F12  1  0.88825523  0.72888805  0.39203393  1
  F  F13  1  0.61174477  0.27111195  0.89203393  1
  F  F14  1  0.47888805  0.86174477  0.64203393  1
  F  F15  1  0.02111195  0.13825523  0.14203393  1
  F  F16  1  0.88825523  0.77111195  0.89203393  1
  F  F17  1  0.61174477  0.22888805  0.39203393  1
  F  F18  1  0.47888805  0.63825523  0.14203393  1
  F  F19  1  0.02111195  0.36174477  0.64203393  1
  F  F20  1  0.61174477  0.77111195  0.10796607  1
  F  F21  1  0.88825523  0.22888805  0.60796607  1
  F  F22  1  0.02111195  0.63825523  0.85796607  1
  F  F23  1  0.47888805  0.36174477  0.35796607  1
  F  F24  1  0.11174477  0.22888805  0.10796607  1
  F  F25  1  0.38825523  0.77111195  0.60796607  1
  F  F26  1  0.52111195  0.36174477  0.85796607  1
  F  F27  1  0.97888805  0.63825523  0.35796607  1
  F  F28  1  0.38825523  0.22888805  0.89203393  1
  F  F29  1  0.11174477  0.77111195  0.39203393  1
  F  F30  1  0.97888805  0.36174477  0.14203393  1
  F  F31  1  0.52111195  0.63825523  0.64203393  1
  F  F32  1  0.47769628  0.21113269  0.78792839  1
  F  F33  1  0.02230372  0.78886731  0.28792839  1
  F  F34  1  0.03886731  0.22769628  0.03792839  1
  F  F35  1  0.46113269  0.77230372  0.53792839  1
  F  F36  1  0.02230372  0.21113269  0.21207161  1
  F  F37  1  0.47769628  0.78886731  0.71207161  1
  F  F38  1  0.46113269  0.22769628  0.96207161  1
  F  F39  1  0.03886731  0.77230372  0.46207161  1
  F  F40  1  0.52230372  0.78886731  0.21207161  1
  F  F41  1  0.97769628  0.21113269  0.71207161  1
  F  F42  1  0.96113269  0.77230372  0.96207161  1
  F  F43  1  0.53886731  0.22769628  0.46207161  1
  F  F44  1  0.97769628  0.78886731  0.78792839  1
  F  F45  1  0.52230372  0.21113269  0.28792839  1
  F  F46  1  0.53886731  0.77230372  0.03792839  1
  F  F47  1  0.96113269  0.22769628  0.53792839  1
  F  F48  1  0.97769628  0.71113269  0.28792839  1
  F  F49  1  0.52230372  0.28886731  0.78792839  1
  F  F50  1  0.53886731  0.72769628  0.53792839  1
  F  F51  1  0.96113269  0.27230372  0.03792839  1
  F  F52  1  0.52230372  0.71113269  0.71207161  1
  F  F53  1  0.97769628  0.28886731  0.21207161  1
  F  F54  1  0.96113269  0.72769628  0.46207161  1
  F  F55  1  0.53886731  0.27230372  0.96207161  1
  F  F56  1  0.02230372  0.28886731  0.71207161  1
  F  F57  1  0.47769628  0.71113269  0.21207161  1
  F  F58  1  0.46113269  0.27230372  0.46207161  1
  F  F59  1  0.03886731  0.72769628  0.96207161  1
  F  F60  1  0.47769628  0.28886731  0.28792839  1
  F  F61  1  0.02230372  0.71113269  0.78792839  1
  F  F62  1  0.03886731  0.27230372  0.53792839  1
  F  F63  1  0.46113269  0.72769628  0.03792839  1
  Li  Li64  1  0.77317789  0.49313965  0.91240459  1
  Li  Li65  1  -0.27317789  -0.49313965  1.41240459  1
  Li  Li66  1  -0.24313965  1.52317789  1.16240459  1
  Li  Li67  1  0.74313965  -0.52317789  1.66240459  1
  Li  Li68  1  -0.27317789  0.49313965  -0.91240459  1
  Li  Li69  1  0.77317789  -0.49313965  -0.41240459  1
  Li  Li70  1  0.74313965  1.52317789  -0.16240459  1
  Li  Li71  1  -0.24313965  -0.52317789  -0.66240459  1
  Li  Li72  1  -0.77317789  -0.49313965  -0.91240459  1
  Li  Li73  1  1.27317789  0.49313965  -0.41240459  1
  Li  Li74  1  1.24313965  -0.52317789  -0.16240459  1
  Li  Li75  1  0.25686035  1.52317789  -0.66240459  1
  Li  Li76  1  1.27317789  -0.49313965  0.91240459  1
  Li  Li77  1  -0.77317789  0.49313965  1.41240459  1
  Li  Li78  1  0.25686035  -0.52317789  1.16240459  1
  Li  Li79  1  1.24313965  1.52317789  1.66240459  1
  Li  Li80  1  1.27317789  0.99313965  1.41240459  1
  Li  Li81  1  0.22682211  0.00686035  1.91240459  1
  Li  Li82  1  0.25686035  2.02317789  1.66240459  1
  Li  Li83  1  1.24313965  -0.02317789  2.16240459  1
  Li  Li84  1  0.22682211  0.99313965  -0.41240459  1
  Li  Li85  1  1.27317789  0.00686035  0.08759541  1
  Li  Li86  1  1.24313965  2.02317789  0.33759541  1
  Li  Li87  1  0.25686035  -0.02317789  -0.16240459  1
  Li  Li88  1  -0.27317789  0.00686035  -0.41240459  1
  Li  Li89  1  1.77317789  0.99313965  0.08759541  1
  Li  Li90  1  1.74313965  -0.02317789  0.33759541  1
  Li  Li91  1  0.75686035  2.02317789  -0.16240459  1
  Li  Li92  1  1.77317789  0.00686035  1.41240459  1
  Li  Li93  1  -0.27317789  0.99313965  1.91240459  1
  Li  Li94  1  0.75686035  -0.02317789  1.66240459  1
  Li  Li95  1  1.74313965  2.02317789  2.16240459  1
  Li  Li96  1  0.41918341  0.05349654  0.76340868  1
  Li  Li97  1  0.08081659  0.94650346  0.26340868  1
  Li  Li98  1  0.19650346  0.16918341  0.01340868  1
  Li  Li99  1  0.30349654  0.83081659  0.51340868  1
  Li  Li100  1  0.08081659  0.05349654  0.23659132  1
  Li  Li101  1  0.41918341  0.94650346  0.73659132  1
  Li  Li102  1  0.30349654  0.16918341  0.98659132  1
  Li  Li103  1  0.19650346  0.83081659  0.48659132  1
  Li  Li104  1  0.58081659  0.94650346  0.23659132  1
  Li  Li105  1  0.91918341  0.05349654  0.73659132  1
  Li  Li106  1  0.80349654  0.83081659  0.98659132  1
  Li  Li107  1  0.69650346  0.16918341  0.48659132  1
  Li  Li108  1  0.91918341  0.94650346  0.76340868  1
  Li  Li109  1  0.58081659  0.05349654  0.26340868  1
  Li  Li110  1  0.69650346  0.83081659  0.01340868  1
  Li  Li111  1  0.80349654  0.16918341  0.51340868  1
  Li  Li112  1  0.91918341  0.55349654  0.26340868  1
  Li  Li113  1  0.58081659  0.44650346  0.76340868  1
  Li  Li114  1  0.69650346  0.66918341  0.51340868  1
  Li  Li115  1  0.80349654  0.33081659  0.01340868  1
  Li  Li116  1  0.58081659  0.55349654  0.73659132  1
  Li  Li117  1  0.91918341  0.44650346  0.23659132  1
  Li  Li118  1  0.80349654  0.66918341  0.48659132  1
  Li  Li119  1  0.69650346  0.33081659  0.98659132  1
  Li  Li120  1  0.08081659  0.44650346  0.73659132  1
  Li  Li121  1  0.41918341  0.55349654  0.23659132  1
  Li  Li122  1  0.30349654  0.33081659  0.48659132  1
  Li  Li123  1  0.19650346  0.66918341  0.98659132  1
  Li  Li124  1  0.41918341  0.44650346  0.26340868  1
  Li  Li125  1  0.08081659  0.55349654  0.76340868  1
  Li  Li126  1  0.19650346  0.33081659  0.51340868  1
  Li  Li127  1  0.30349654  0.66918341  0.01340868  1
