# generated using pymatgen
data_LiF
_symmetry_space_group_name_H-M   'P 1'
_cell_length_a   7.71796571
_cell_length_b   7.71796571
_cell_length_c   18.55762289
_cell_angle_alpha   90.00000000
_cell_angle_beta   90.00000000
_cell_angle_gamma   120.00000000
_symmetry_Int_Tables_number   1
_chemical_formula_structural   LiF
_chemical_formula_sum   'Li37 F37'
_cell_volume   957.32338306
_cell_formula_units_Z   37
loop_
 _symmetry_equiv_pos_site_id
 _symmetry_equiv_pos_as_xyz
  1  'x, y, z'
loop_
 _atom_site_type_symbol
 _atom_site_label
 _atom_site_symmetry_multiplicity
 _atom_site_fract_x
 _atom_site_fract_y
 _atom_site_fract_z
 _atom_site_occupancy
  F  F0  1  0.00000000  0.00000000  0.97432937  1
  F  F1  1  0.00000000  0.00000000  0.02567063  1
  F  F2  1  0.68611078  0.13894506  0.58141871  1
  F  F3  1  0.86105494  0.54716572  0.58141871  1
  F  F4  1  0.45283428  0.31388922  0.58141871  1
  F  F5  1  0.86105494  0.31388922  0.41858129  1
  F  F6  1  0.45283428  0.13894506  0.41858129  1
  F  F7  1  0.68611078  0.54716572  0.41858129  1
  F  F8  1  0.66666667  0.33333333  0.50000000  1
  F  F9  1  0.66666667  0.33333333  0.76324032  1
  F  F10  1  0.66666667  0.33333333  0.23675968  1
  F  F11  1  0.70127593  0.21329385  0.28893405  1
  F  F12  1  0.78670615  0.48798208  0.28893405  1
  F  F13  1  0.51201792  0.29872407  0.28893405  1
  F  F14  1  0.78670615  0.29872407  0.71106595  1
  F  F15  1  0.51201792  0.21329385  0.71106595  1
  F  F16  1  0.70127593  0.48798208  0.71106595  1
  F  F17  1  0.00000000  0.00000000  0.65388337  1
  F  F18  1  0.00000000  0.00000000  0.34611663  1
  F  F19  1  0.18705941  0.04574909  0.68045926  1
  F  F20  1  0.95425091  0.14131032  0.68045926  1
  F  F21  1  0.85868968  0.81294059  0.68045926  1
  F  F22  1  0.95425091  0.81294059  0.31954074  1
  F  F23  1  0.85868968  0.04574909  0.31954074  1
  F  F24  1  0.18705941  0.14131032  0.31954074  1
  F  F25  1  0.66076297  0.17441824  0.78107562  1
  F  F26  1  0.82558176  0.48634472  0.78107562  1
  F  F27  1  0.51365528  0.33923703  0.78107562  1
  F  F28  1  0.82558176  0.33923703  0.21892438  1
  F  F29  1  0.51365528  0.17441824  0.21892438  1
  F  F30  1  0.66076297  0.48634472  0.21892438  1
  F  F31  1  0.77820727  0.41609235  0.41242673  1
  F  F32  1  0.58390765  0.36211492  0.41242673  1
  F  F33  1  0.63788508  0.22179273  0.41242673  1
  F  F34  1  0.58390765  0.22179273  0.58757327  1
  F  F35  1  0.63788508  0.41609235  0.58757327  1
  F  F36  1  0.77820727  0.36211492  0.58757327  1
  Li  Li37  1  0.80477419  0.19522581  0.00000000  1
  Li  Li38  1  0.80477419  0.60954837  0.00000000  1
  Li  Li39  1  0.39045163  0.19522581  0.00000000  1
  Li  Li40  1  0.33333333  0.66666667  0.50000000  1
  Li  Li41  1  0.95834264  0.56803371  0.27841576  1
  Li  Li42  1  -0.56803371  0.39030893  0.27841576  1
  Li  Li43  1  -0.39030893  -0.95834264  0.27841576  1
  Li  Li44  1  -0.56803371  -0.95834264  -0.27841576  1
  Li  Li45  1  -0.39030893  0.56803371  -0.27841576  1
  Li  Li46  1  0.95834264  0.39030893  -0.27841576  1
  Li  Li47  1  0.00080352  0.81839770  0.04318356  1
  Li  Li48  1  0.18160230  0.18240582  0.04318356  1
  Li  Li49  1  0.81759418  0.99919648  0.04318356  1
  Li  Li50  1  0.18160230  0.99919648  0.95681644  1
  Li  Li51  1  0.81759418  0.81839770  0.95681644  1
  Li  Li52  1  0.00080352  0.18240582  0.95681644  1
  Li  Li53  1  0.48291201  0.36860332  0.85515015  1
  Li  Li54  1  0.63139668  0.11430869  0.85515015  1
  Li  Li55  1  0.88569131  0.51708799  0.85515015  1
  Li  Li56  1  0.63139668  0.51708799  0.14484985  1
  Li  Li57  1  0.88569131  0.36860332  0.14484985  1
  Li  Li58  1  0.48291201  0.11430869  0.14484985  1
  Li  Li59  1  0.15988186  0.18224579  0.83332908  1
  Li  Li60  1  0.81775421  0.97763607  0.83332908  1
  Li  Li61  1  0.02236393  0.84011814  0.83332908  1
  Li  Li62  1  0.81775421  0.84011814  0.16667092  1
  Li  Li63  1  0.02236393  0.18224579  0.16667092  1
  Li  Li64  1  0.15988186  0.97763607  0.16667092  1
  Li  Li65  1  0.58969501  0.74952088  0.35385022  1
  Li  Li66  1  0.25047912  0.84017413  0.35385022  1
  Li  Li67  1  0.15982587  0.41030499  0.35385022  1
  Li  Li68  1  0.25047912  0.41030499  0.64614978  1
  Li  Li69  1  0.15982587  0.74952088  0.64614978  1
  Li  Li70  1  0.58969501  0.84017413  0.64614978  1
  Li  Li71  1  0.00000000  0.00000000  0.50000000  1
  Li  Li72  1  0.00000000  0.00000000  0.19240606  1
  Li  Li73  1  0.00000000  0.00000000  0.80759394  1
