# generated using pymatgen
data_LiF
_symmetry_space_group_name_H-M   'P 1'
_cell_length_a   9.06593202
_cell_length_b   9.06593202
_cell_length_c   17.57114588
_cell_angle_alpha   90.00000000
_cell_angle_beta   90.00000000
_cell_angle_gamma   90.00000000
_symmetry_Int_Tables_number   1
_chemical_formula_structural   LiF
_chemical_formula_sum   'Li64 F64'
_cell_volume   1444.19221855
_cell_formula_units_Z   64
loop_
 _symmetry_equiv_pos_site_id
 _symmetry_equiv_pos_as_xyz
  1  'x, y, z'
loop_
 _atom_site_type_symbol
 _atom_site_label
 _atom_site_symmetry_multiplicity
 _atom_site_fract_x
 _atom_site_fract_y
 _atom_site_fract_z
 _atom_site_occupancy
  F  F0  1  0.51631547  0.19919622  0.57111131  1
  F  F1  1  -0.01631547  -0.19919622  1.07111131  1
  F  F2  1  0.05080378  1.26631547  0.82111131  1
  F  F3  1  0.44919622  -0.26631547  1.32111131  1
  F  F4  1  -0.01631547  0.19919622  -0.57111131  1
  F  F5  1  0.51631547  -0.19919622  -0.07111131  1
  F  F6  1  0.44919622  1.26631547  0.17888869  1
  F  F7  1  0.05080378  -0.26631547  -0.32111131  1
  F  F8  1  -0.51631547  -0.19919622  -0.57111131  1
  F  F9  1  1.01631547  0.19919622  -0.07111131  1
  F  F10  1  0.94919622  -0.26631547  0.17888869  1
  F  F11  1  0.55080378  1.26631547  -0.32111131  1
  F  F12  1  1.01631547  -0.19919622  0.57111131  1
  F  F13  1  -0.51631547  0.19919622  1.07111131  1
  F  F14  1  0.55080378  -0.26631547  0.82111131  1
  F  F15  1  0.94919622  1.26631547  1.32111131  1
  F  F16  1  1.01631547  0.69919622  1.07111131  1
  F  F17  1  0.48368453  0.30080378  1.57111131  1
  F  F18  1  0.55080378  1.76631547  1.32111131  1
  F  F19  1  0.94919622  0.23368453  1.82111131  1
  F  F20  1  0.48368453  0.69919622  -0.07111131  1
  F  F21  1  1.01631547  0.30080378  0.42888869  1
  F  F22  1  0.94919622  1.76631547  0.67888869  1
  F  F23  1  0.55080378  0.23368453  0.17888869  1
  F  F24  1  -0.01631547  0.30080378  -0.07111131  1
  F  F25  1  1.51631547  0.69919622  0.42888869  1
  F  F26  1  1.44919622  0.23368453  0.67888869  1
  F  F27  1  1.05080378  1.76631547  0.17888869  1
  F  F28  1  1.51631547  0.30080378  1.07111131  1
  F  F29  1  -0.01631547  0.69919622  1.57111131  1
  F  F30  1  1.05080378  0.23368453  1.32111131  1
  F  F31  1  1.44919622  1.76631547  1.82111131  1
  F  F32  1  0.83787090  0.93352291  0.47935749  1
  F  F33  1  0.66212910  0.06647709  0.97935749  1
  F  F34  1  0.31647709  0.58787090  0.72935749  1
  F  F35  1  0.18352291  0.41212910  0.22935749  1
  F  F36  1  0.66212910  0.93352291  0.52064251  1
  F  F37  1  0.83787090  0.06647709  0.02064251  1
  F  F38  1  0.18352291  0.58787090  0.27064251  1
  F  F39  1  0.31647709  0.41212910  0.77064251  1
  F  F40  1  0.16212910  0.06647709  0.52064251  1
  F  F41  1  0.33787090  0.93352291  0.02064251  1
  F  F42  1  0.68352291  0.41212910  0.27064251  1
  F  F43  1  0.81647709  0.58787090  0.77064251  1
  F  F44  1  0.33787090  0.06647709  0.47935749  1
  F  F45  1  0.16212910  0.93352291  0.97935749  1
  F  F46  1  0.81647709  0.41212910  0.72935749  1
  F  F47  1  0.68352291  0.58787090  0.22935749  1
  F  F48  1  0.33787090  0.43352291  0.97935749  1
  F  F49  1  0.16212910  0.56647709  0.47935749  1
  F  F50  1  0.81647709  0.08787090  0.22935749  1
  F  F51  1  0.68352291  0.91212910  0.72935749  1
  F  F52  1  0.16212910  0.43352291  0.02064251  1
  F  F53  1  0.33787090  0.56647709  0.52064251  1
  F  F54  1  0.68352291  0.08787090  0.77064251  1
  F  F55  1  0.81647709  0.91212910  0.27064251  1
  F  F56  1  0.66212910  0.56647709  0.02064251  1
  F  F57  1  0.83787090  0.43352291  0.52064251  1
  F  F58  1  0.18352291  0.91212910  0.77064251  1
  F  F59  1  0.31647709  0.08787090  0.27064251  1
  F  F60  1  0.83787090  0.56647709  0.97935749  1
  F  F61  1  0.66212910  0.43352291  0.47935749  1
  F  F62  1  0.31647709  0.91212910  0.22935749  1
  F  F63  1  0.18352291  0.08787090  0.72935749  1
  Li  Li64  1  0.92828915  0.00000000  0.25000000  1
  Li  Li65  1  0.57171085  -0.00000000  0.75000000  1
  Li  Li66  1  0.25000000  0.67828915  0.50000000  1
  Li  Li67  1  0.25000000  0.32171085  0.00000000  1
  Li  Li68  1  0.07171085  0.00000000  0.75000000  1
  Li  Li69  1  0.42828915  0.00000000  0.25000000  1
  Li  Li70  1  0.75000000  0.32171085  0.50000000  1
  Li  Li71  1  0.75000000  0.67828915  0.00000000  1
  Li  Li72  1  0.42828915  0.50000000  0.75000000  1
  Li  Li73  1  0.07171085  0.50000000  0.25000000  1
  Li  Li74  1  0.75000000  0.17828915  -0.00000000  1
  Li  Li75  1  0.75000000  0.82171085  0.50000000  1
  Li  Li76  1  0.57171085  0.50000000  0.25000000  1
  Li  Li77  1  0.92828915  0.50000000  0.75000000  1
  Li  Li78  1  0.25000000  0.82171085  -0.00000000  1
  Li  Li79  1  0.25000000  0.17828915  0.50000000  1
  Li  Li80  1  0.10793534  -0.00000000  0.25000000  1
  Li  Li81  1  0.39206466  -0.00000000  0.75000000  1
  Li  Li82  1  0.25000000  0.85793534  0.50000000  1
  Li  Li83  1  0.25000000  0.14206466  0.00000000  1
  Li  Li84  1  0.89206466  -0.00000000  0.75000000  1
  Li  Li85  1  0.60793534  -0.00000000  0.25000000  1
  Li  Li86  1  0.75000000  0.14206466  0.50000000  1
  Li  Li87  1  0.75000000  0.85793534  0.00000000  1
  Li  Li88  1  0.60793534  0.50000000  0.75000000  1
  Li  Li89  1  0.89206466  0.50000000  0.25000000  1
  Li  Li90  1  0.75000000  0.35793534  -0.00000000  1
  Li  Li91  1  0.75000000  0.64206466  0.50000000  1
  Li  Li92  1  0.39206466  0.50000000  0.25000000  1
  Li  Li93  1  0.10793534  0.50000000  0.75000000  1
  Li  Li94  1  0.25000000  0.64206466  -0.00000000  1
  Li  Li95  1  0.25000000  0.35793534  0.50000000  1
  Li  Li96  1  0.00000000  0.25000000  0.22156696  1
  Li  Li97  1  0.00000000  0.75000000  0.47156696  1
  Li  Li98  1  0.50000000  0.25000000  0.77843304  1
  Li  Li99  1  0.50000000  0.75000000  0.52843304  1
  Li  Li100  1  0.00000000  0.75000000  0.77843304  1
  Li  Li101  1  0.00000000  0.25000000  0.52843304  1
  Li  Li102  1  0.50000000  0.75000000  0.22156696  1
  Li  Li103  1  0.50000000  0.25000000  0.47156696  1
  Li  Li104  1  0.50000000  0.75000000  0.72156696  1
  Li  Li105  1  0.50000000  0.25000000  0.97156696  1
  Li  Li106  1  0.00000000  0.75000000  0.27843304  1
  Li  Li107  1  0.00000000  0.25000000  0.02843304  1
  Li  Li108  1  0.50000000  0.25000000  0.27843304  1
  Li  Li109  1  0.50000000  0.75000000  0.02843304  1
  Li  Li110  1  0.00000000  0.25000000  0.72156696  1
  Li  Li111  1  0.00000000  0.75000000  0.97156696  1
  Li  Li112  1  0.00000000  0.25000000  0.37500000  1
  Li  Li113  1  0.00000000  0.75000000  0.62500000  1
  Li  Li114  1  0.50000000  0.25000000  0.62500000  1
  Li  Li115  1  0.50000000  0.75000000  0.37500000  1
  Li  Li116  1  0.50000000  0.75000000  0.87500000  1
  Li  Li117  1  0.50000000  0.25000000  0.12500000  1
  Li  Li118  1  0.00000000  0.75000000  0.12500000  1
  Li  Li119  1  0.00000000  0.25000000  0.87500000  1
  Li  Li120  1  0.00000000  0.25000000  0.12500000  1
  Li  Li121  1  0.00000000  0.75000000  0.37500000  1
  Li  Li122  1  0.00000000  0.75000000  0.87500000  1
  Li  Li123  1  0.00000000  0.25000000  0.62500000  1
  Li  Li124  1  0.50000000  0.75000000  0.62500000  1
  Li  Li125  1  0.50000000  0.25000000  0.87500000  1
  Li  Li126  1  0.50000000  0.25000000  0.37500000  1
  Li  Li127  1  0.50000000  0.75000000  0.12500000  1
