# generated using pymatgen
data_LiF
_symmetry_space_group_name_H-M   'P 1'
_cell_length_a   10.92289774
_cell_length_b   10.92289774
_cell_length_c   7.31183301
_cell_angle_alpha   90.00000000
_cell_angle_beta   90.00000000
_cell_angle_gamma   90.00000000
_symmetry_Int_Tables_number   1
_chemical_formula_structural   LiF
_chemical_formula_sum   'Li40 F40'
_cell_volume   872.37256627
_cell_formula_units_Z   40
loop_
 _symmetry_equiv_pos_site_id
 _symmetry_equiv_pos_as_xyz
  1  'x, y, z'
loop_
 _atom_site_type_symbol
 _atom_site_label
 _atom_site_symmetry_multiplicity
 _atom_site_fract_x
 _atom_site_fract_y
 _atom_site_fract_z
 _atom_site_occupancy
  F  F0  1  0.28598689  0.53598689  0.12500000  1
  F  F1  1  0.21401311  0.46401311  0.62500000  1
  F  F2  1  0.71401311  0.03598689  0.37500000  1
  F  F3  1  0.78598689  0.96401311  0.87500000  1
  F  F4  1  0.71401311  0.46401311  0.87500000  1
  F  F5  1  0.78598689  0.53598689  0.37500000  1
  F  F6  1  0.28598689  0.96401311  0.62500000  1
  F  F7  1  0.21401311  0.03598689  0.12500000  1
  F  F8  1  0.78598689  0.03598689  0.62500000  1
  F  F9  1  0.71401311  0.96401311  0.12500000  1
  F  F10  1  0.21401311  0.53598689  0.87500000  1
  F  F11  1  0.28598689  0.46401311  0.37500000  1
  F  F12  1  0.21401311  0.96401311  0.37500000  1
  F  F13  1  0.28598689  0.03598689  0.87500000  1
  F  F14  1  0.78598689  0.46401311  0.12500000  1
  F  F15  1  0.71401311  0.53598689  0.62500000  1
  F  F16  1  0.00000000  0.25000000  0.12500000  1
  F  F17  1  0.00000000  0.75000000  0.37500000  1
  F  F18  1  0.00000000  0.75000000  0.87500000  1
  F  F19  1  0.00000000  0.25000000  0.62500000  1
  F  F20  1  0.50000000  0.75000000  0.62500000  1
  F  F21  1  0.50000000  0.25000000  0.87500000  1
  F  F22  1  0.50000000  0.25000000  0.37500000  1
  F  F23  1  0.50000000  0.75000000  0.12500000  1
  F  F24  1  0.00000000  0.00000000  0.00000000  1
  F  F25  1  0.50000000  0.00000000  0.50000000  1
  F  F26  1  0.25000000  0.75000000  0.25000000  1
  F  F27  1  0.25000000  0.25000000  0.75000000  1
  F  F28  1  0.50000000  0.00000000  0.00000000  1
  F  F29  1  0.00000000  0.00000000  0.50000000  1
  F  F30  1  0.25000000  0.75000000  0.75000000  1
  F  F31  1  0.25000000  0.25000000  0.25000000  1
  F  F32  1  0.50000000  0.50000000  0.50000000  1
  F  F33  1  0.00000000  0.50000000  0.00000000  1
  F  F34  1  0.75000000  0.25000000  0.75000000  1
  F  F35  1  0.75000000  0.75000000  0.25000000  1
  F  F36  1  0.00000000  0.50000000  0.50000000  1
  F  F37  1  0.50000000  0.50000000  0.00000000  1
  F  F38  1  0.75000000  0.25000000  0.25000000  1
  F  F39  1  0.75000000  0.75000000  0.75000000  1
  Li  Li40  1  0.77086381  0.64431156  0.60793306  1
  Li  Li41  1  -0.27086381  -0.64431156  1.10793306  1
  Li  Li42  1  -0.39431156  1.52086381  0.85793306  1
  Li  Li43  1  0.89431156  -0.52086381  1.35793306  1
  Li  Li44  1  -0.27086381  0.64431156  -0.60793306  1
  Li  Li45  1  0.77086381  -0.64431156  -0.10793306  1
  Li  Li46  1  0.89431156  1.52086381  0.14206694  1
  Li  Li47  1  -0.39431156  -0.52086381  -0.35793306  1
  Li  Li48  1  -0.77086381  -0.64431156  -0.60793306  1
  Li  Li49  1  1.27086381  0.64431156  -0.10793306  1
  Li  Li50  1  1.39431156  -0.52086381  0.14206694  1
  Li  Li51  1  0.10568844  1.52086381  -0.35793306  1
  Li  Li52  1  1.27086381  -0.64431156  0.60793306  1
  Li  Li53  1  -0.77086381  0.64431156  1.10793306  1
  Li  Li54  1  0.10568844  -0.52086381  0.85793306  1
  Li  Li55  1  1.39431156  1.52086381  1.35793306  1
  Li  Li56  1  1.27086381  1.14431156  1.10793306  1
  Li  Li57  1  0.22913619  -0.14431156  1.60793306  1
  Li  Li58  1  0.10568844  2.02086381  1.35793306  1
  Li  Li59  1  1.39431156  -0.02086381  1.85793306  1
  Li  Li60  1  0.22913619  1.14431156  -0.10793306  1
  Li  Li61  1  1.27086381  -0.14431156  0.39206694  1
  Li  Li62  1  1.39431156  2.02086381  0.64206694  1
  Li  Li63  1  0.10568844  -0.02086381  0.14206694  1
  Li  Li64  1  -0.27086381  -0.14431156  -0.10793306  1
  Li  Li65  1  1.77086381  1.14431156  0.39206694  1
  Li  Li66  1  1.89431156  -0.02086381  0.64206694  1
  Li  Li67  1  0.60568844  2.02086381  0.14206694  1
  Li  Li68  1  1.77086381  -0.14431156  1.10793306  1
  Li  Li69  1  -0.27086381  1.14431156  1.60793306  1
  Li  Li70  1  0.60568844  -0.02086381  1.35793306  1
  Li  Li71  1  1.89431156  2.02086381  1.85793306  1
  Li  Li72  1  0.00000000  0.25000000  0.37500000  1
  Li  Li73  1  0.00000000  0.75000000  0.62500000  1
  Li  Li74  1  0.50000000  0.25000000  0.62500000  1
  Li  Li75  1  0.50000000  0.75000000  0.37500000  1
  Li  Li76  1  0.50000000  0.75000000  0.87500000  1
  Li  Li77  1  0.50000000  0.25000000  0.12500000  1
  Li  Li78  1  0.00000000  0.75000000  0.12500000  1
  Li  Li79  1  0.00000000  0.25000000  0.87500000  1
