# generated using pymatgen
data_LiF
_symmetry_space_group_name_H-M   'P 1'
_cell_length_a   10.47387870
_cell_length_b   10.47387870
_cell_length_c   2.84447855
_cell_angle_alpha   90.00000000
_cell_angle_beta   90.00000000
_cell_angle_gamma   120.00000000
_symmetry_Int_Tables_number   1
_chemical_formula_structural   LiF
_chemical_formula_sum   'Li15 F15'
_cell_volume   270.23921765
_cell_formula_units_Z   15
loop_
 _symmetry_equiv_pos_site_id
 _symmetry_equiv_pos_as_xyz
  1  'x, y, z'
loop_
 _atom_site_type_symbol
 _atom_site_label
 _atom_site_symmetry_multiplicity
 _atom_site_fract_x
 _atom_site_fract_y
 _atom_site_fract_z
 _atom_site_occupancy
  F  F0  1  0.34326887  0.73516704  0.50000000  1
  F  F1  1  0.26483296  0.60810182  0.50000000  1
  F  F2  1  0.39189818  0.65673113  0.50000000  1
  F  F3  1  0.73516704  0.34326887  0.50000000  1
  F  F4  1  0.60810182  0.26483296  0.50000000  1
  F  F5  1  0.65673113  0.39189818  0.50000000  1
  F  F6  1  0.71150535  -0.00000000  0.21641669  1
  F  F7  1  0.00000000  0.71150535  0.21641669  1
  F  F8  1  0.28849465  0.28849465  0.21641669  1
  F  F9  1  0.71150535  -0.00000000  0.78358331  1
  F  F10  1  0.00000000  0.71150535  0.78358331  1
  F  F11  1  0.28849465  0.28849465  0.78358331  1
  F  F12  1  0.64480625  0.00000000  0.50000000  1
  F  F13  1  0.00000000  0.64480625  0.50000000  1
  F  F14  1  0.35519375  0.35519375  0.50000000  1
  Li  Li15  1  0.53128884  0.00000000  0.00000000  1
  Li  Li16  1  0.00000000  0.53128884  0.00000000  1
  Li  Li17  1  0.46871116  0.46871116  0.00000000  1
  Li  Li18  1  0.73728848  0.88070780  0.50000000  1
  Li  Li19  1  -0.88070780  -0.14341932  0.50000000  1
  Li  Li20  1  0.14341932  -0.73728848  0.50000000  1
  Li  Li21  1  0.88070780  0.73728848  0.50000000  1
  Li  Li22  1  -0.14341932  -0.88070780  0.50000000  1
  Li  Li23  1  -0.73728848  0.14341932  0.50000000  1
  Li  Li24  1  0.19728073  -0.00000000  0.00000000  1
  Li  Li25  1  0.00000000  0.19728073  0.00000000  1
  Li  Li26  1  0.80271927  0.80271927  0.00000000  1
  Li  Li27  1  0.54980560  0.00000000  0.50000000  1
  Li  Li28  1  0.00000000  0.54980560  0.50000000  1
  Li  Li29  1  0.45019440  0.45019440  0.50000000  1
