# generated using pymatgen
data_Li2Y2MoP3
_symmetry_space_group_name_H-M   'P 1'
_cell_length_a   4.73623200
_cell_length_b   5.04406555
_cell_length_c   7.06033588
_cell_angle_alpha   95.24252418
_cell_angle_beta   101.41712776
_cell_angle_gamma   111.05713603
_symmetry_Int_Tables_number   1
_chemical_formula_structural   Li2Y2MoP3
_chemical_formula_sum   'Li2 Y2 Mo1 P3'
_cell_volume   151.83845984
_cell_formula_units_Z   1
loop_
 _symmetry_equiv_pos_site_id
 _symmetry_equiv_pos_as_xyz
  1  'x, y, z'
loop_
 _atom_site_type_symbol
 _atom_site_label
 _atom_site_symmetry_multiplicity
 _atom_site_fract_x
 _atom_site_fract_y
 _atom_site_fract_z
 _atom_site_occupancy
  Y  Y0  1  0.00000000  0.00000000  0.00000000  1
  Y  Y1  1  0.33300000  0.66700000  0.25000000  1
  P  P2  1  0.66700000  0.33300000  0.50000000  1
  P  P3  1  0.00000000  0.00000000  0.75000000  1
  P  P4  1  0.75989798  0.90890245  0.65034303  1
  Mo  Mo5  1  0.89728839  0.56801929  0.22745726  1
  Li  Li6  1  0.05411019  0.00259727  0.53917195  1
  Li  Li7  1  0.93377461  0.74932306  0.23884824  1
