# generated using pymatgen
data_Li2Y2P3Se
_symmetry_space_group_name_H-M   'P 1'
_cell_length_a   5.44877231
_cell_length_b   5.42360069
_cell_length_c   7.30031465
_cell_angle_alpha   93.99920146
_cell_angle_beta   98.70942936
_cell_angle_gamma   106.06320281
_symmetry_Int_Tables_number   1
_chemical_formula_structural   Li2Y2P3Se
_chemical_formula_sum   'Li2 Y2 P3 Se1'
_cell_volume   203.50469164
_cell_formula_units_Z   1
loop_
 _symmetry_equiv_pos_site_id
 _symmetry_equiv_pos_as_xyz
  1  'x, y, z'
loop_
 _atom_site_type_symbol
 _atom_site_label
 _atom_site_symmetry_multiplicity
 _atom_site_fract_x
 _atom_site_fract_y
 _atom_site_fract_z
 _atom_site_occupancy
  Se  Se0  1  0.12500000  0.12500000  0.12500000  1
  Y  Y1  1  0.50000000  0.50000000  0.50000000  1
  Y  Y2  1  0.25000000  0.25000000  0.25000000  1
  P  P3  1  0.75000000  0.75000000  0.75000000  1
  P  P4  1  0.27964518  0.33540269  0.26340939  1
  P  P5  1  0.51069156  0.47377621  0.52879826  1
  Li  Li6  1  0.30638301  0.61671925  0.98799947  1
  Li  Li7  1  0.39575822  0.15849985  0.53277484  1
