# generated using pymatgen
data_LiYAs2P
_symmetry_space_group_name_H-M   'P 1'
_cell_length_a   5.14503383
_cell_length_b   5.26225356
_cell_length_c   6.92821360
_cell_angle_alpha   94.13320256
_cell_angle_beta   99.17645487
_cell_angle_gamma   106.81297471
_symmetry_Int_Tables_number   1
_chemical_formula_structural   LiYAs2P
_chemical_formula_sum   'Li2 Y2 As4 P2'
_cell_volume   175.86935639
_cell_formula_units_Z   2
loop_
 _symmetry_equiv_pos_site_id
 _symmetry_equiv_pos_as_xyz
  1  'x, y, z'
loop_
 _atom_site_type_symbol
 _atom_site_label
 _atom_site_symmetry_multiplicity
 _atom_site_fract_x
 _atom_site_fract_y
 _atom_site_fract_z
 _atom_site_occupancy
  P  P0  1  0.00000000  0.00000000  0.00000000  1
  P  P1  1  0.50000000  0.50000000  0.50000000  1
  As  As2  1  0.25000000  0.25000000  0.25000000  1
  As  As3  1  0.75000000  0.25000000  0.00000000  1
  As  As4  1  0.25000000  0.75000000  0.50000000  1
  As  As5  1  0.20892860  0.23936490  0.51818753  1
  Li  Li6  1  0.92308032  0.28180275  0.94591381  1
  Li  Li7  1  0.55381889  0.84549719  0.19789240  1
  Y  Y8  1  0.71790621  0.04127229  0.65147890  1
  Y  Y9  1  0.91536992  0.98605996  0.60643753  1
