# generated using pymatgen
data_LiF
_symmetry_space_group_name_H-M   'P 1'
_cell_length_a   9.40784711
_cell_length_b   9.40784711
_cell_length_c   3.82770758
_cell_angle_alpha   90.00000000
_cell_angle_beta   90.00000000
_cell_angle_gamma   120.00000000
_symmetry_Int_Tables_number   1
_chemical_formula_structural   LiF
_chemical_formula_sum   'Li9 F9'
_cell_volume   293.39309333
_cell_formula_units_Z   9
loop_
 _symmetry_equiv_pos_site_id
 _symmetry_equiv_pos_as_xyz
  1  'x, y, z'
loop_
 _atom_site_type_symbol
 _atom_site_label
 _atom_site_symmetry_multiplicity
 _atom_site_fract_x
 _atom_site_fract_y
 _atom_site_fract_z
 _atom_site_occupancy
  F  F0  1  0.70089076  0.00000000  0.00000000  1
  F  F1  1  0.00000000  0.70089076  -0.00000000  1
  F  F2  1  0.29910924  0.29910924  0.00000000  1
  F  F3  1  0.31551350  0.00000000  0.50000000  1
  F  F4  1  0.00000000  0.31551350  0.50000000  1
  F  F5  1  0.68448650  0.68448650  0.50000000  1
  F  F6  1  0.19172552  0.00000000  0.00000000  1
  F  F7  1  0.00000000  0.19172552  0.00000000  1
  F  F8  1  0.80827448  0.80827448  0.00000000  1
  Li  Li9  1  0.70432385  0.18515068  0.50000000  1
  Li  Li10  1  -0.18515068  0.51917317  0.50000000  1
  Li  Li11  1  -0.51917317  -0.70432385  0.50000000  1
  Li  Li12  1  0.18515068  0.70432385  0.50000000  1
  Li  Li13  1  0.51917317  -0.18515068  0.50000000  1
  Li  Li14  1  -0.70432385  -0.51917317  0.50000000  1
  Li  Li15  1  0.33333333  0.66666667  0.00000000  1
  Li  Li16  1  0.66666667  0.33333333  0.00000000  1
  Li  Li17  1  0.00000000  0.00000000  0.50000000  1
