# generated using pymatgen
data_LiY2As2P3Se
_symmetry_space_group_name_H-M   'P 1'
_cell_length_a   5.46561954
_cell_length_b   5.50975134
_cell_length_c   7.28868475
_cell_angle_alpha   93.88670521
_cell_angle_beta   97.75951725
_cell_angle_gamma   104.50585106
_symmetry_Int_Tables_number   1
_chemical_formula_structural   LiY2As2P3Se
_chemical_formula_sum   'Li1 Y2 As2 P3 Se1'
_cell_volume   209.36587389
_cell_formula_units_Z   1
loop_
 _symmetry_equiv_pos_site_id
 _symmetry_equiv_pos_as_xyz
  1  'x, y, z'
loop_
 _atom_site_type_symbol
 _atom_site_label
 _atom_site_symmetry_multiplicity
 _atom_site_fract_x
 _atom_site_fract_y
 _atom_site_fract_z
 _atom_site_occupancy
  Se  Se0  1  0.12500000  0.00000000  0.25000000  1
  P  P1  1  0.00000000  0.00000000  0.00000000  1
  P  P2  1  0.37500000  0.00000000  0.25000000  1
  P  P3  1  0.25000000  0.25000000  0.25000000  1
  As  As4  1  0.00000000  0.25000000  0.12500000  1
  As  As5  1  0.78825038  0.09293667  0.02799615  1
  Li  Li6  1  0.99211481  0.05143057  0.46392868  1
  Y  Y7  1  0.23982046  0.68277629  0.96007935  1
  Y  Y8  1  0.97786940  0.81860419  0.66093176  1
