# generated using pymatgen
data_Li4TeF2
_symmetry_space_group_name_H-M   'P 1'
_cell_length_a   14.25656344
_cell_length_b   14.25656344
_cell_length_c   14.25656344
_cell_angle_alpha   90.00000000
_cell_angle_beta   90.00000000
_cell_angle_gamma   90.00000000
_symmetry_Int_Tables_number   1
_chemical_formula_structural   Li4TeF2
_chemical_formula_sum   'Li96 Te24 F48'
_cell_volume   2897.64083298
_cell_formula_units_Z   24
loop_
 _symmetry_equiv_pos_site_id
 _symmetry_equiv_pos_as_xyz
  1  'x, y, z'
loop_
 _atom_site_type_symbol
 _atom_site_label
 _atom_site_symmetry_multiplicity
 _atom_site_fract_x
 _atom_site_fract_y
 _atom_site_fract_z
 _atom_site_occupancy
  F  F0  1  0.44879080  0.45157890  0.00912592  1
  F  F1  1  0.05120920  -0.45157890  0.50912592  1
  F  F2  1  -0.44879080  0.95157890  0.49087408  1
  F  F3  1  0.94879080  0.04842110  -0.00912592  1
  F  F4  1  0.00912592  0.44879080  0.45157890  1
  F  F5  1  0.50912592  0.05120920  -0.45157890  1
  F  F6  1  0.49087408  -0.44879080  0.95157890  1
  F  F7  1  -0.00912592  0.94879080  0.04842110  1
  F  F8  1  0.45157890  0.00912592  0.44879080  1
  F  F9  1  -0.45157890  0.50912592  0.05120920  1
  F  F10  1  0.95157890  0.49087408  -0.44879080  1
  F  F11  1  0.04842110  -0.00912592  0.94879080  1
  F  F12  1  1.20157890  0.69879080  0.24087408  1
  F  F13  1  0.29842110  0.30120920  0.74087408  1
  F  F14  1  0.70157890  -0.19879080  0.75912592  1
  F  F15  1  -0.20157890  1.19879080  0.25912592  1
  F  F16  1  1.19879080  0.25912592  -0.20157890  1
  F  F17  1  -0.19879080  0.75912592  0.70157890  1
  F  F18  1  0.30120920  0.74087408  0.29842110  1
  F  F19  1  0.69879080  0.24087408  1.20157890  1
  F  F20  1  0.75912592  0.70157890  -0.19879080  1
  F  F21  1  0.25912592  -0.20157890  1.19879080  1
  F  F22  1  0.24087408  1.20157890  0.69879080  1
  F  F23  1  0.74087408  0.29842110  0.30120920  1
  F  F24  1  0.94879080  0.95157890  0.50912592  1
  F  F25  1  0.55120920  0.04842110  1.00912592  1
  F  F26  1  0.05120920  1.45157890  0.99087408  1
  F  F27  1  1.44879080  0.54842110  0.49087408  1
  F  F28  1  0.50912592  0.94879080  0.95157890  1
  F  F29  1  1.00912592  0.55120920  0.04842110  1
  F  F30  1  0.99087408  0.05120920  1.45157890  1
  F  F31  1  0.49087408  1.44879080  0.54842110  1
  F  F32  1  0.95157890  0.50912592  0.94879080  1
  F  F33  1  0.04842110  1.00912592  0.55120920  1
  F  F34  1  1.45157890  0.99087408  0.05120920  1
  F  F35  1  0.54842110  0.49087408  1.44879080  1
  F  F36  1  1.70157890  1.19879080  0.74087408  1
  F  F37  1  0.79842110  0.80120920  1.24087408  1
  F  F38  1  1.20157890  0.30120920  1.25912592  1
  F  F39  1  0.29842110  1.69879080  0.75912592  1
  F  F40  1  1.69879080  0.75912592  0.29842110  1
  F  F41  1  0.30120920  1.25912592  1.20157890  1
  F  F42  1  0.80120920  1.24087408  0.79842110  1
  F  F43  1  1.19879080  0.74087408  1.70157890  1
  F  F44  1  1.25912592  1.20157890  0.30120920  1
  F  F45  1  0.75912592  0.29842110  1.69879080  1
  F  F46  1  0.74087408  1.70157890  1.19879080  1
  F  F47  1  1.24087408  0.79842110  0.80120920  1
  Li  Li48  1  0.12500000  0.88669807  0.13669807  1
  Li  Li49  1  0.37500000  0.11330193  0.63669807  1
  Li  Li50  1  0.87500000  0.38669807  0.36330193  1
  Li  Li51  1  0.62500000  0.61330193  0.86330193  1
  Li  Li52  1  0.13669807  0.12500000  0.88669807  1
  Li  Li53  1  0.63669807  0.37500000  0.11330193  1
  Li  Li54  1  0.36330193  0.87500000  0.38669807  1
  Li  Li55  1  0.86330193  0.62500000  0.61330193  1
  Li  Li56  1  0.88669807  0.13669807  0.12500000  1
  Li  Li57  1  0.11330193  0.63669807  0.37500000  1
  Li  Li58  1  0.38669807  0.36330193  0.87500000  1
  Li  Li59  1  0.61330193  0.86330193  0.62500000  1
  Li  Li60  1  0.62500000  0.38669807  0.63669807  1
  Li  Li61  1  0.87500000  0.61330193  0.13669807  1
  Li  Li62  1  0.37500000  0.88669807  0.86330193  1
  Li  Li63  1  0.12500000  0.11330193  0.36330193  1
  Li  Li64  1  0.63669807  0.62500000  0.38669807  1
  Li  Li65  1  0.13669807  0.87500000  0.61330193  1
  Li  Li66  1  0.86330193  0.37500000  0.88669807  1
  Li  Li67  1  0.36330193  0.12500000  0.11330193  1
  Li  Li68  1  0.38669807  0.63669807  0.62500000  1
  Li  Li69  1  0.61330193  0.13669807  0.87500000  1
  Li  Li70  1  0.88669807  0.86330193  0.37500000  1
  Li  Li71  1  0.11330193  0.36330193  0.12500000  1
  Li  Li72  1  0.12500000  0.73405203  0.51594797  1
  Li  Li73  1  0.37500000  0.26594797  0.01594797  1
  Li  Li74  1  0.87500000  0.23405203  0.98405203  1
  Li  Li75  1  0.62500000  0.76594797  0.48405203  1
  Li  Li76  1  0.51594797  0.12500000  0.73405203  1
  Li  Li77  1  0.01594797  0.37500000  0.26594797  1
  Li  Li78  1  0.98405203  0.87500000  0.23405203  1
  Li  Li79  1  0.48405203  0.62500000  0.76594797  1
  Li  Li80  1  0.73405203  0.51594797  0.12500000  1
  Li  Li81  1  0.26594797  0.01594797  0.37500000  1
  Li  Li82  1  0.23405203  0.98405203  0.87500000  1
  Li  Li83  1  0.76594797  0.48405203  0.62500000  1
  Li  Li84  1  0.62500000  0.23405203  0.01594797  1
  Li  Li85  1  0.87500000  0.76594797  0.51594797  1
  Li  Li86  1  0.37500000  0.73405203  0.48405203  1
  Li  Li87  1  0.12500000  0.26594797  0.98405203  1
  Li  Li88  1  0.01594797  0.62500000  0.23405203  1
  Li  Li89  1  0.51594797  0.87500000  0.76594797  1
  Li  Li90  1  0.48405203  0.37500000  0.73405203  1
  Li  Li91  1  0.98405203  0.12500000  0.26594797  1
  Li  Li92  1  0.23405203  0.01594797  0.62500000  1
  Li  Li93  1  0.76594797  0.51594797  0.87500000  1
  Li  Li94  1  0.73405203  0.48405203  0.37500000  1
  Li  Li95  1  0.26594797  0.98405203  0.12500000  1
  Li  Li96  1  0.12500000  0.66679240  0.58320760  1
  Li  Li97  1  0.37500000  0.33320760  0.08320760  1
  Li  Li98  1  0.87500000  0.16679240  0.91679240  1
  Li  Li99  1  0.62500000  0.83320760  0.41679240  1
  Li  Li100  1  0.58320760  0.12500000  0.66679240  1
  Li  Li101  1  0.08320760  0.37500000  0.33320760  1
  Li  Li102  1  0.91679240  0.87500000  0.16679240  1
  Li  Li103  1  0.41679240  0.62500000  0.83320760  1
  Li  Li104  1  0.66679240  0.58320760  0.12500000  1
  Li  Li105  1  0.33320760  0.08320760  0.37500000  1
  Li  Li106  1  0.16679240  0.91679240  0.87500000  1
  Li  Li107  1  0.83320760  0.41679240  0.62500000  1
  Li  Li108  1  0.62500000  0.16679240  0.08320760  1
  Li  Li109  1  0.87500000  0.83320760  0.58320760  1
  Li  Li110  1  0.37500000  0.66679240  0.41679240  1
  Li  Li111  1  0.12500000  0.33320760  0.91679240  1
  Li  Li112  1  0.08320760  0.62500000  0.16679240  1
  Li  Li113  1  0.58320760  0.87500000  0.83320760  1
  Li  Li114  1  0.41679240  0.37500000  0.66679240  1
  Li  Li115  1  0.91679240  0.12500000  0.33320760  1
  Li  Li116  1  0.16679240  0.08320760  0.62500000  1
  Li  Li117  1  0.83320760  0.58320760  0.87500000  1
  Li  Li118  1  0.66679240  0.41679240  0.37500000  1
  Li  Li119  1  0.33320760  0.91679240  0.12500000  1
  Li  Li120  1  0.12500000  0.29092094  0.54092094  1
  Li  Li121  1  0.37500000  0.70907906  0.04092094  1
  Li  Li122  1  0.87500000  0.79092094  0.95907906  1
  Li  Li123  1  0.62500000  0.20907906  0.45907906  1
  Li  Li124  1  0.54092094  0.12500000  0.29092094  1
  Li  Li125  1  0.04092094  0.37500000  0.70907906  1
  Li  Li126  1  0.95907906  0.87500000  0.79092094  1
  Li  Li127  1  0.45907906  0.62500000  0.20907906  1
  Li  Li128  1  0.29092094  0.54092094  0.12500000  1
  Li  Li129  1  0.70907906  0.04092094  0.37500000  1
  Li  Li130  1  0.79092094  0.95907906  0.87500000  1
  Li  Li131  1  0.20907906  0.45907906  0.62500000  1
  Li  Li132  1  0.62500000  0.79092094  0.04092094  1
  Li  Li133  1  0.87500000  0.20907906  0.54092094  1
  Li  Li134  1  0.37500000  0.29092094  0.45907906  1
  Li  Li135  1  0.12500000  0.70907906  0.95907906  1
  Li  Li136  1  0.04092094  0.62500000  0.79092094  1
  Li  Li137  1  0.54092094  0.87500000  0.20907906  1
  Li  Li138  1  0.45907906  0.37500000  0.29092094  1
  Li  Li139  1  0.95907906  0.12500000  0.70907906  1
  Li  Li140  1  0.79092094  0.04092094  0.62500000  1
  Li  Li141  1  0.20907906  0.54092094  0.87500000  1
  Li  Li142  1  0.29092094  0.45907906  0.37500000  1
  Li  Li143  1  0.70907906  0.95907906  0.12500000  1
  Te  Te144  1  0.87500000  0.87500000  0.87500000  1
  Te  Te145  1  0.62500000  0.12500000  0.37500000  1
  Te  Te146  1  0.12500000  0.37500000  0.62500000  1
  Te  Te147  1  0.37500000  0.62500000  0.12500000  1
  Te  Te148  1  0.37500000  0.37500000  0.37500000  1
  Te  Te149  1  0.12500000  0.62500000  0.87500000  1
  Te  Te150  1  0.62500000  0.87500000  0.12500000  1
  Te  Te151  1  0.87500000  0.12500000  0.62500000  1
  Te  Te152  1  0.07130099  0.07130099  0.07130099  1
  Te  Te153  1  0.42869901  0.92869901  0.57130099  1
  Te  Te154  1  0.92869901  0.57130099  0.42869901  1
  Te  Te155  1  0.57130099  0.42869901  0.92869901  1
  Te  Te156  1  0.82130099  0.32130099  0.17869901  1
  Te  Te157  1  0.67869901  0.67869901  0.67869901  1
  Te  Te158  1  0.32130099  0.17869901  0.82130099  1
  Te  Te159  1  0.17869901  0.82130099  0.32130099  1
  Te  Te160  1  0.57130099  0.57130099  0.57130099  1
  Te  Te161  1  0.92869901  0.42869901  0.07130099  1
  Te  Te162  1  0.42869901  0.07130099  0.92869901  1
  Te  Te163  1  0.07130099  0.92869901  0.42869901  1
  Te  Te164  1  0.32130099  0.82130099  0.67869901  1
  Te  Te165  1  0.17869901  0.17869901  0.17869901  1
  Te  Te166  1  0.82130099  0.67869901  0.32130099  1
  Te  Te167  1  0.67869901  0.32130099  0.82130099  1
