# generated using pymatgen
data_Li2Cu3P2Se
_symmetry_space_group_name_H-M   'P 1'
_cell_length_a   4.88241968
_cell_length_b   5.24724440
_cell_length_c   6.41481153
_cell_angle_alpha   94.12179708
_cell_angle_beta   97.01296650
_cell_angle_gamma   102.40040629
_symmetry_Int_Tables_number   1
_chemical_formula_structural   Li2Cu3P2Se
_chemical_formula_sum   'Li2 Cu3 P2 Se1'
_cell_volume   158.49002410
_cell_formula_units_Z   1
loop_
 _symmetry_equiv_pos_site_id
 _symmetry_equiv_pos_as_xyz
  1  'x, y, z'
loop_
 _atom_site_type_symbol
 _atom_site_label
 _atom_site_symmetry_multiplicity
 _atom_site_fract_x
 _atom_site_fract_y
 _atom_site_fract_z
 _atom_site_occupancy
  Se  Se0  1  0.00000000  0.00000000  0.00000000  1
  Cu  Cu1  1  0.33300000  0.66700000  0.25000000  1
  Cu  Cu2  1  0.66700000  0.33300000  0.50000000  1
  Cu  Cu3  1  0.00000000  0.00000000  0.75000000  1
  P  P4  1  0.82189739  0.71795354  0.10584980  1
  P  P5  1  0.17033533  0.55677399  0.84361634  1
  Li  Li6  1  0.24991751  0.56630001  0.41160579  1
  Li  Li7  1  0.28082065  0.23653157  0.32529520  1
