# generated using pymatgen
data_Li4TeF2
_symmetry_space_group_name_H-M   'P 1'
_cell_length_a   9.48182522
_cell_length_b   9.48182522
_cell_length_c   44.68021413
_cell_angle_alpha   90.00000000
_cell_angle_beta   90.00000000
_cell_angle_gamma   120.00000000
_symmetry_Int_Tables_number   1
_chemical_formula_structural   Li4TeF2
_chemical_formula_sum   'Li96 Te24 F48'
_cell_volume   3478.80246002
_cell_formula_units_Z   24
loop_
 _symmetry_equiv_pos_site_id
 _symmetry_equiv_pos_as_xyz
  1  'x, y, z'
loop_
 _atom_site_type_symbol
 _atom_site_label
 _atom_site_symmetry_multiplicity
 _atom_site_fract_x
 _atom_site_fract_y
 _atom_site_fract_z
 _atom_site_occupancy
  F  F0  1  0.21641327  0.71409766  0.98695141  1
  F  F1  1  -0.71409766  -0.49768439  0.98695141  1
  F  F2  1  0.49768439  -0.21641327  0.98695141  1
  F  F3  1  -0.71409766  -0.21641327  -0.98695141  1
  F  F4  1  0.49768439  0.71409766  -0.98695141  1
  F  F5  1  0.21641327  -0.49768439  -0.98695141  1
  F  F6  1  0.76102854  0.23897146  -0.00000000  1
  F  F7  1  0.76102854  0.52205708  -0.00000000  1
  F  F8  1  0.47794292  0.23897146  -0.00000000  1
  F  F9  1  0.00000000  0.00000000  0.61903274  1
  F  F10  1  0.00000000  0.00000000  0.38096726  1
  F  F11  1  0.32319091  0.07917537  0.80826839  1
  F  F12  1  0.92082463  0.24401554  0.80826839  1
  F  F13  1  0.75598446  0.67680909  0.80826839  1
  F  F14  1  0.92082463  0.67680909  0.19173161  1
  F  F15  1  0.75598446  0.07917537  0.19173161  1
  F  F16  1  0.32319091  0.24401554  0.19173161  1
  F  F17  1  0.66666667  0.33333333  0.21394732  1
  F  F18  1  0.66666667  0.33333333  0.78605268  1
  F  F19  1  0.87377266  0.25097925  0.39413326  1
  F  F20  1  0.74902075  0.62279341  0.39413326  1
  F  F21  1  0.37720659  0.12622734  0.39413326  1
  F  F22  1  0.74902075  0.12622734  0.60586674  1
  F  F23  1  0.37720659  0.25097925  0.60586674  1
  F  F24  1  0.87377266  0.62279341  0.60586674  1
  F  F25  1  0.00000000  0.00000000  0.50000000  1
  F  F26  1  0.54767891  0.62037722  0.80820174  1
  F  F27  1  0.37962278  0.92730169  0.80820174  1
  F  F28  1  0.07269831  0.45232109  0.80820174  1
  F  F29  1  0.37962278  0.45232109  0.19179826  1
  F  F30  1  0.07269831  0.62037722  0.19179826  1
  F  F31  1  0.54767891  0.92730169  0.19179826  1
  F  F32  1  0.33333333  0.66666667  -0.00000000  1
  F  F33  1  0.91835474  0.37059052  0.06082576  1
  F  F34  1  0.62940948  0.54776422  0.06082576  1
  F  F35  1  0.45223578  0.08164526  0.06082576  1
  F  F36  1  0.62940948  0.08164526  0.93917424  1
  F  F37  1  0.45223578  0.37059052  0.93917424  1
  F  F38  1  0.91835474  0.54776422  0.93917424  1
  F  F39  1  0.43319629  0.16963595  0.69467058  1
  F  F40  1  0.83036405  0.26356034  0.69467058  1
  F  F41  1  0.73643966  0.56680371  0.69467058  1
  F  F42  1  0.83036405  0.56680371  0.30532942  1
  F  F43  1  0.73643966  0.16963595  0.30532942  1
  F  F44  1  0.43319629  0.26356034  0.30532942  1
  F  F45  1  0.53691607  0.46308393  0.50000000  1
  F  F46  1  0.53691607  0.07383215  0.50000000  1
  F  F47  1  0.92616785  0.46308393  0.50000000  1
  Li  Li48  1  0.09864554  0.44276588  0.68860760  1
  Li  Li49  1  0.55723412  0.65587966  0.68860760  1
  Li  Li50  1  0.34412034  0.90135446  0.68860760  1
  Li  Li51  1  0.55723412  0.90135446  0.31139240  1
  Li  Li52  1  0.34412034  0.44276588  0.31139240  1
  Li  Li53  1  0.09864554  0.65587966  0.31139240  1
  Li  Li54  1  0.66666667  0.33333333  0.55282393  1
  Li  Li55  1  0.66666667  0.33333333  0.44717607  1
  Li  Li56  1  0.11314269  0.88685731  0.50000000  1
  Li  Li57  1  0.11314269  0.22628538  0.50000000  1
  Li  Li58  1  0.77371462  0.88685731  0.50000000  1
  Li  Li59  1  0.11491158  0.56878406  0.39006611  1
  Li  Li60  1  0.43121594  0.54612752  0.39006611  1
  Li  Li61  1  0.45387248  0.88508842  0.39006611  1
  Li  Li62  1  0.43121594  0.88508842  0.60993389  1
  Li  Li63  1  0.45387248  0.56878406  0.60993389  1
  Li  Li64  1  0.11491158  0.54612752  0.60993389  1
  Li  Li65  1  0.06522155  0.73593256  0.36945257  1
  Li  Li66  1  0.26406744  0.32928899  0.36945257  1
  Li  Li67  1  0.67071101  0.93477845  0.36945257  1
  Li  Li68  1  0.26406744  0.93477845  0.63054743  1
  Li  Li69  1  0.67071101  0.73593256  0.63054743  1
  Li  Li70  1  0.06522155  0.32928899  0.63054743  1
  Li  Li71  1  0.53371313  0.57690663  0.92326290  1
  Li  Li72  1  0.42309337  0.95680650  0.92326290  1
  Li  Li73  1  0.04319350  0.46628687  0.92326290  1
  Li  Li74  1  0.42309337  0.46628687  0.07673710  1
  Li  Li75  1  0.04319350  0.57690663  0.07673710  1
  Li  Li76  1  0.53371313  0.95680650  0.07673710  1
  Li  Li77  1  0.06425942  0.83210914  0.97031963  1
  Li  Li78  1  0.16789086  0.23215028  0.97031963  1
  Li  Li79  1  0.76784972  0.93574058  0.97031963  1
  Li  Li80  1  0.16789086  0.93574058  0.02968037  1
  Li  Li81  1  0.76784972  0.83210914  0.02968037  1
  Li  Li82  1  0.06425942  0.23215028  0.02968037  1
  Li  Li83  1  0.91984819  0.78007036  0.04866402  1
  Li  Li84  1  0.21992964  0.13977783  0.04866402  1
  Li  Li85  1  0.86022217  0.08015181  0.04866402  1
  Li  Li86  1  0.21992964  0.08015181  0.95133598  1
  Li  Li87  1  0.86022217  0.78007036  0.95133598  1
  Li  Li88  1  0.91984819  0.13977783  0.95133598  1
  Li  Li89  1  0.66666667  0.33333333  0.95777444  1
  Li  Li90  1  0.66666667  0.33333333  0.04222556  1
  Li  Li91  1  0.14501588  0.32930691  0.18860032  1
  Li  Li92  1  0.67069309  0.81570897  0.18860032  1
  Li  Li93  1  0.18429103  0.85498412  0.18860032  1
  Li  Li94  1  0.67069309  0.85498412  0.81139968  1
  Li  Li95  1  0.18429103  0.32930691  0.81139968  1
  Li  Li96  1  0.14501588  0.81570897  0.81139968  1
  Li  Li97  1  0.66666667  0.33333333  0.19222083  1
  Li  Li98  1  0.66666667  0.33333333  0.80777917  1
  Li  Li99  1  0.62381688  0.45719881  0.03145100  1
  Li  Li100  1  0.54280119  0.16661806  0.03145100  1
  Li  Li101  1  0.83338194  0.37618312  0.03145100  1
  Li  Li102  1  0.54280119  0.37618312  0.96854900  1
  Li  Li103  1  0.83338194  0.45719881  0.96854900  1
  Li  Li104  1  0.62381688  0.16661806  0.96854900  1
  Li  Li105  1  0.20958879  0.15646589  0.16008639  1
  Li  Li106  1  0.84353411  0.05312290  0.16008639  1
  Li  Li107  1  0.94687710  0.79041121  0.16008639  1
  Li  Li108  1  0.84353411  0.79041121  0.83991361  1
  Li  Li109  1  0.94687710  0.15646589  0.83991361  1
  Li  Li110  1  0.20958879  0.05312290  0.83991361  1
  Li  Li111  1  0.66666667  0.33333333  0.50000000  1
  Li  Li112  1  0.61523871  0.65682435  0.32473759  1
  Li  Li113  1  0.34317565  0.95841436  0.32473759  1
  Li  Li114  1  0.04158564  0.38476129  0.32473759  1
  Li  Li115  1  0.34317565  0.38476129  0.67526241  1
  Li  Li116  1  0.04158564  0.65682435  0.67526241  1
  Li  Li117  1  0.61523871  0.95841436  0.67526241  1
  Li  Li118  1  0.00003676  0.59180048  0.80553229  1
  Li  Li119  1  0.40819952  0.40823627  0.80553229  1
  Li  Li120  1  0.59176373  0.99996324  0.80553229  1
  Li  Li121  1  0.40819952  0.99996324  0.19446771  1
  Li  Li122  1  0.59176373  0.59180048  0.19446771  1
  Li  Li123  1  0.00003676  0.40823627  0.19446771  1
  Li  Li124  1  0.70246891  0.43090965  0.10291944  1
  Li  Li125  1  0.56909035  0.27155927  0.10291944  1
  Li  Li126  1  0.72844073  0.29753109  0.10291944  1
  Li  Li127  1  0.56909035  0.29753109  0.89708056  1
  Li  Li128  1  0.72844073  0.43090965  0.89708056  1
  Li  Li129  1  0.70246891  0.27155927  0.89708056  1
  Li  Li130  1  0.16898126  0.30610545  0.70845784  1
  Li  Li131  1  0.69389455  0.86287581  0.70845784  1
  Li  Li132  1  0.13712419  0.83101874  0.70845784  1
  Li  Li133  1  0.69389455  0.83101874  0.29154216  1
  Li  Li134  1  0.13712419  0.30610545  0.29154216  1
  Li  Li135  1  0.16898126  0.86287581  0.29154216  1
  Li  Li136  1  0.42427324  0.57572676  -0.00000000  1
  Li  Li137  1  0.42427324  0.84854649  0.00000000  1
  Li  Li138  1  0.15145351  0.57572676  -0.00000000  1
  Li  Li139  1  0.00000000  0.00000000  0.31711241  1
  Li  Li140  1  0.00000000  0.00000000  0.68288759  1
  Li  Li141  1  0.33333333  0.66666667  0.50000000  1
  Li  Li142  1  0.66666667  0.33333333  0.15357013  1
  Li  Li143  1  0.66666667  0.33333333  0.84642987  1
  Te  Te144  1  0.00000000  0.00000000  0.12404497  1
  Te  Te145  1  0.00000000  0.00000000  0.87595503  1
  Te  Te146  1  0.00000000  0.00000000  0.00000000  1
  Te  Te147  1  0.66964076  0.99051757  0.74731634  1
  Te  Te148  1  0.00948243  0.67912318  0.74731634  1
  Te  Te149  1  0.32087682  0.33035924  0.74731634  1
  Te  Te150  1  0.00948243  0.33035924  0.25268366  1
  Te  Te151  1  0.32087682  0.99051757  0.25268366  1
  Te  Te152  1  0.66964076  0.67912318  0.25268366  1
  Te  Te153  1  0.16660769  0.16058293  0.26922536  1
  Te  Te154  1  0.83941707  0.00602476  0.26922536  1
  Te  Te155  1  0.99397524  0.83339231  0.26922536  1
  Te  Te156  1  0.83941707  0.83339231  0.73077464  1
  Te  Te157  1  0.99397524  0.16058293  0.73077464  1
  Te  Te158  1  0.16660769  0.00602476  0.73077464  1
  Te  Te159  1  0.29523282  0.99249929  0.13332424  1
  Te  Te160  1  0.00750071  0.30273353  0.13332424  1
  Te  Te161  1  0.69726647  0.70476718  0.13332424  1
  Te  Te162  1  0.00750071  0.70476718  0.86667576  1
  Te  Te163  1  0.69726647  0.99249929  0.86667576  1
  Te  Te164  1  0.29523282  0.30273353  0.86667576  1
  Te  Te165  1  0.85957016  0.14042984  0.50000000  1
  Te  Te166  1  0.85957016  0.71914032  0.50000000  1
  Te  Te167  1  0.28085968  0.14042984  0.50000000  1
