# generated using pymatgen
data_LiF
_symmetry_space_group_name_H-M   'P 1'
_cell_length_a   8.29958059
_cell_length_b   8.29958059
_cell_length_c   10.96123632
_cell_angle_alpha   90.00000000
_cell_angle_beta   90.00000000
_cell_angle_gamma   120.00000000
_symmetry_Int_Tables_number   1
_chemical_formula_structural   LiF
_chemical_formula_sum   'Li22 F22'
_cell_volume   653.88664261
_cell_formula_units_Z   22
loop_
 _symmetry_equiv_pos_site_id
 _symmetry_equiv_pos_as_xyz
  1  'x, y, z'
loop_
 _atom_site_type_symbol
 _atom_site_label
 _atom_site_symmetry_multiplicity
 _atom_site_fract_x
 _atom_site_fract_y
 _atom_site_fract_z
 _atom_site_occupancy
  F  F0  1  0.98644078  0.55012074  0.49181473  1
  F  F1  1  -0.55012074  0.43632004  0.49181473  1
  F  F2  1  -0.43632004  -0.98644078  0.49181473  1
  F  F3  1  -0.98644078  -0.55012074  0.99181473  1
  F  F4  1  0.55012074  -0.43632004  0.99181473  1
  F  F5  1  0.43632004  0.98644078  0.99181473  1
  F  F6  1  -0.98644078  -0.55012074  -0.49181473  1
  F  F7  1  0.55012074  -0.43632004  -0.49181473  1
  F  F8  1  0.43632004  0.98644078  -0.49181473  1
  F  F9  1  0.98644078  0.55012074  0.00818527  1
  F  F10  1  -0.55012074  0.43632004  0.00818527  1
  F  F11  1  -0.43632004  -0.98644078  0.00818527  1
  F  F12  1  0.33333333  0.66666667  0.25000000  1
  F  F13  1  0.66666667  0.33333333  0.75000000  1
  F  F14  1  0.00000000  0.00000000  0.00000000  1
  F  F15  1  0.00000000  0.00000000  0.50000000  1
  F  F16  1  0.15669004  0.37923590  0.25000000  1
  F  F17  1  0.62076410  0.77745414  0.25000000  1
  F  F18  1  0.22254586  0.84330996  0.25000000  1
  F  F19  1  0.84330996  0.62076410  0.75000000  1
  F  F20  1  0.37923590  0.22254586  0.75000000  1
  F  F21  1  0.77745414  0.15669004  0.75000000  1
  Li  Li22  1  0.61088232  0.39886144  0.25000000  1
  Li  Li23  1  0.60113856  0.21202088  0.25000000  1
  Li  Li24  1  0.78797912  0.38911768  0.25000000  1
  Li  Li25  1  0.38911768  0.60113856  0.75000000  1
  Li  Li26  1  0.39886144  0.78797912  0.75000000  1
  Li  Li27  1  0.21202088  0.61088232  0.75000000  1
  Li  Li28  1  0.58782441  0.89806291  0.25000000  1
  Li  Li29  1  0.10193709  0.68976150  0.25000000  1
  Li  Li30  1  0.31023850  0.41217559  0.25000000  1
  Li  Li31  1  0.41217559  0.10193709  0.75000000  1
  Li  Li32  1  0.89806291  0.31023850  0.75000000  1
  Li  Li33  1  0.68976150  0.58782441  0.75000000  1
  Li  Li34  1  0.82410499  0.05294773  0.25000000  1
  Li  Li35  1  0.94705227  0.77115726  0.25000000  1
  Li  Li36  1  0.22884274  0.17589501  0.25000000  1
  Li  Li37  1  0.17589501  0.94705227  0.75000000  1
  Li  Li38  1  0.05294773  0.22884274  0.75000000  1
  Li  Li39  1  0.77115726  0.82410499  0.75000000  1
  Li  Li40  1  0.33333333  0.66666667  0.01046150  1
  Li  Li41  1  0.66666667  0.33333333  0.51046150  1
  Li  Li42  1  0.66666667  0.33333333  0.98953850  1
  Li  Li43  1  0.33333333  0.66666667  0.48953850  1
