# generated using pymatgen
data_Li2YTiAlO
_symmetry_space_group_name_H-M   'P 1'
_cell_length_a   3.20635087
_cell_length_b   3.15907930
_cell_length_c   5.13712543
_cell_angle_alpha   95.04119605
_cell_angle_beta   109.46564344
_cell_angle_gamma   114.00002646
_symmetry_Int_Tables_number   1
_chemical_formula_structural   Li2YTiAlO
_chemical_formula_sum   'Li2 Y1 Ti1 Al1 O1'
_cell_volume   43.28488681
_cell_formula_units_Z   1
loop_
 _symmetry_equiv_pos_site_id
 _symmetry_equiv_pos_as_xyz
  1  'x, y, z'
loop_
 _atom_site_type_symbol
 _atom_site_label
 _atom_site_symmetry_multiplicity
 _atom_site_fract_x
 _atom_site_fract_y
 _atom_site_fract_z
 _atom_site_occupancy
  Al  Al0  1  0.00000000  0.00000000  0.00000000  1
  Li  Li1  1  0.50000000  0.50000000  0.50000000  1
  Li  Li2  1  0.50000000  0.50000000  0.00000000  1
  O  O3  1  0.50000000  0.00000000  0.50000000  1
  Ti  Ti4  1  0.00000000  0.50000000  0.50000000  1
  Y  Y5  1  0.68865066  0.66682634  0.68644554  1
