# generated using pymatgen
data_LiF
_symmetry_space_group_name_H-M   'P 1'
_cell_length_a   11.38172660
_cell_length_b   11.38172660
_cell_length_c   4.83201214
_cell_angle_alpha   90.00000000
_cell_angle_beta   90.00000000
_cell_angle_gamma   120.00000000
_symmetry_Int_Tables_number   1
_chemical_formula_structural   LiF
_chemical_formula_sum   'Li28 F28'
_cell_volume   542.09443178
_cell_formula_units_Z   28
loop_
 _symmetry_equiv_pos_site_id
 _symmetry_equiv_pos_as_xyz
  1  'x, y, z'
loop_
 _atom_site_type_symbol
 _atom_site_label
 _atom_site_symmetry_multiplicity
 _atom_site_fract_x
 _atom_site_fract_y
 _atom_site_fract_z
 _atom_site_occupancy
  F  F0  1  0.40405186  0.84778282  0.35886734  1
  F  F1  1  -0.84778282  -0.44373095  0.35886734  1
  F  F2  1  0.44373095  -0.40405186  0.35886734  1
  F  F3  1  -0.40405186  -0.84778282  0.85886734  1
  F  F4  1  0.84778282  0.44373095  0.85886734  1
  F  F5  1  -0.44373095  0.40405186  0.85886734  1
  F  F6  1  -0.40405186  -0.84778282  -0.35886734  1
  F  F7  1  0.84778282  0.44373095  -0.35886734  1
  F  F8  1  -0.44373095  0.40405186  -0.35886734  1
  F  F9  1  0.40405186  0.84778282  0.14113266  1
  F  F10  1  -0.84778282  -0.44373095  0.14113266  1
  F  F11  1  0.44373095  -0.40405186  0.14113266  1
  F  F12  1  0.33333333  0.66666667  0.25000000  1
  F  F13  1  0.66666667  0.33333333  0.75000000  1
  F  F14  1  0.69504085  0.55930367  0.25000000  1
  F  F15  1  0.44069633  0.13573718  0.25000000  1
  F  F16  1  0.86426282  0.30495915  0.25000000  1
  F  F17  1  0.30495915  0.44069633  0.75000000  1
  F  F18  1  0.55930367  0.86426282  0.75000000  1
  F  F19  1  0.13573718  0.69504085  0.75000000  1
  F  F20  1  0.55516167  0.34322673  0.25000000  1
  F  F21  1  0.65677327  0.21193494  0.25000000  1
  F  F22  1  0.78806506  0.44483833  0.25000000  1
  F  F23  1  0.44483833  0.65677327  0.75000000  1
  F  F24  1  0.34322673  0.78806506  0.75000000  1
  F  F25  1  0.21193494  0.55516167  0.75000000  1
  F  F26  1  0.00000000  0.00000000  0.00000000  1
  F  F27  1  0.00000000  0.00000000  0.50000000  1
  Li  Li28  1  0.82987624  0.22069142  0.54149833  1
  Li  Li29  1  0.77930858  0.60918482  0.54149833  1
  Li  Li30  1  0.39081518  0.17012376  0.54149833  1
  Li  Li31  1  0.17012376  0.77930858  0.04149833  1
  Li  Li32  1  0.22069142  0.39081518  0.04149833  1
  Li  Li33  1  0.60918482  0.82987624  0.04149833  1
  Li  Li34  1  0.17012376  0.77930858  0.45850167  1
  Li  Li35  1  0.22069142  0.39081518  0.45850167  1
  Li  Li36  1  0.60918482  0.82987624  0.45850167  1
  Li  Li37  1  0.82987624  0.22069142  0.95850167  1
  Li  Li38  1  0.77930858  0.60918482  0.95850167  1
  Li  Li39  1  0.39081518  0.17012376  0.95850167  1
  Li  Li40  1  0.58649147  0.65938740  0.02390694  1
  Li  Li41  1  0.34061260  0.92710407  0.02390694  1
  Li  Li42  1  0.07289593  0.41350853  0.02390694  1
  Li  Li43  1  0.41350853  0.34061260  0.52390694  1
  Li  Li44  1  0.65938740  0.07289593  0.52390694  1
  Li  Li45  1  0.92710407  0.58649147  0.52390694  1
  Li  Li46  1  0.41350853  0.34061260  0.97609306  1
  Li  Li47  1  0.65938740  0.07289593  0.97609306  1
  Li  Li48  1  0.92710407  0.58649147  0.97609306  1
  Li  Li49  1  0.58649147  0.65938740  0.47609306  1
  Li  Li50  1  0.34061260  0.92710407  0.47609306  1
  Li  Li51  1  0.07289593  0.41350853  0.47609306  1
  Li  Li52  1  0.00000000  0.00000000  0.25000000  1
  Li  Li53  1  0.00000000  0.00000000  0.75000000  1
  Li  Li54  1  0.66666667  0.33333333  0.25000000  1
  Li  Li55  1  0.33333333  0.66666667  0.75000000  1
