# generated using pymatgen
data_Li2Y2MoP3Se2
_symmetry_space_group_name_H-M   'P 1'
_cell_length_a   4.22006106
_cell_length_b   4.51025593
_cell_length_c   6.86789264
_cell_angle_alpha   96.13996143
_cell_angle_beta   103.37155952
_cell_angle_gamma   114.66178478
_symmetry_Int_Tables_number   1
_chemical_formula_structural   Li2Y2MoP3Se2
_chemical_formula_sum   'Li2 Y2 Mo1 P3 Se2'
_cell_volume   112.47483088
_cell_formula_units_Z   1
loop_
 _symmetry_equiv_pos_site_id
 _symmetry_equiv_pos_as_xyz
  1  'x, y, z'
loop_
 _atom_site_type_symbol
 _atom_site_label
 _atom_site_symmetry_multiplicity
 _atom_site_fract_x
 _atom_site_fract_y
 _atom_site_fract_z
 _atom_site_occupancy
  Se  Se0  1  0.12500000  0.00000000  0.25000000  1
  Se  Se1  1  0.00000000  0.00000000  0.00000000  1
  P  P2  1  0.37500000  0.00000000  0.25000000  1
  P  P3  1  0.25000000  0.25000000  0.25000000  1
  P  P4  1  0.00000000  0.25000000  0.12500000  1
  Mo  Mo5  1  0.41684338  0.09383667  0.07398669  1
  Li  Li6  1  0.58013572  0.59889203  0.87053809  1
  Li  Li7  1  0.15452980  0.78631250  0.75201837  1
  Y  Y8  1  0.41178471  0.38304803  0.74837738  1
  Y  Y9  1  0.78213629  0.46147488  0.69101197  1
