# generated using pymatgen
data_LiF
_symmetry_space_group_name_H-M   'P 1'
_cell_length_a   18.55266774
_cell_length_b   18.55266774
_cell_length_c   5.77615786
_cell_angle_alpha   90.00000000
_cell_angle_beta   90.00000000
_cell_angle_gamma   90.00000000
_symmetry_Int_Tables_number   1
_chemical_formula_structural   LiF
_chemical_formula_sum   'Li64 F64'
_cell_volume   1988.16208524
_cell_formula_units_Z   64
loop_
 _symmetry_equiv_pos_site_id
 _symmetry_equiv_pos_as_xyz
  1  'x, y, z'
loop_
 _atom_site_type_symbol
 _atom_site_label
 _atom_site_symmetry_multiplicity
 _atom_site_fract_x
 _atom_site_fract_y
 _atom_site_fract_z
 _atom_site_occupancy
  F  F0  1  0.62977359  0.25177529  0.30872535  1
  F  F1  1  0.87022641  0.74822471  0.80872535  1
  F  F2  1  0.99822471  0.37977359  0.55872535  1
  F  F3  1  0.50177529  0.62022641  0.05872535  1
  F  F4  1  0.87022641  0.25177529  0.69127465  1
  F  F5  1  0.62977359  0.74822471  0.19127465  1
  F  F6  1  0.50177529  0.37977359  0.44127465  1
  F  F7  1  0.99822471  0.62022641  0.94127465  1
  F  F8  1  0.37022641  0.74822471  0.69127465  1
  F  F9  1  0.12977359  0.25177529  0.19127465  1
  F  F10  1  0.00177529  0.62022641  0.44127465  1
  F  F11  1  0.49822471  0.37977359  0.94127465  1
  F  F12  1  0.12977359  0.74822471  0.30872535  1
  F  F13  1  0.37022641  0.25177529  0.80872535  1
  F  F14  1  0.49822471  0.62022641  0.55872535  1
  F  F15  1  0.00177529  0.37977359  0.05872535  1
  F  F16  1  0.12977359  0.75177529  0.80872535  1
  F  F17  1  0.37022641  0.24822471  0.30872535  1
  F  F18  1  0.49822471  0.87977359  0.05872535  1
  F  F19  1  0.00177529  0.12022641  0.55872535  1
  F  F20  1  0.37022641  0.75177529  0.19127465  1
  F  F21  1  0.12977359  0.24822471  0.69127465  1
  F  F22  1  0.00177529  0.87977359  0.94127465  1
  F  F23  1  0.49822471  0.12022641  0.44127465  1
  F  F24  1  0.87022641  0.24822471  0.19127465  1
  F  F25  1  0.62977359  0.75177529  0.69127465  1
  F  F26  1  0.50177529  0.12022641  0.94127465  1
  F  F27  1  0.99822471  0.87977359  0.44127465  1
  F  F28  1  0.62977359  0.24822471  0.80872535  1
  F  F29  1  0.87022641  0.75177529  0.30872535  1
  F  F30  1  0.99822471  0.12022641  0.05872535  1
  F  F31  1  0.50177529  0.87977359  0.55872535  1
  F  F32  1  0.81956581  0.21550585  0.15252099  1
  F  F33  1  0.68043419  0.78449415  0.65252099  1
  F  F34  1  0.03449415  0.56956581  0.40252099  1
  F  F35  1  0.46550585  0.43043419  0.90252099  1
  F  F36  1  0.68043419  0.21550585  0.84747901  1
  F  F37  1  0.81956581  0.78449415  0.34747901  1
  F  F38  1  0.46550585  0.56956581  0.59747901  1
  F  F39  1  0.03449415  0.43043419  0.09747901  1
  F  F40  1  0.18043419  0.78449415  0.84747901  1
  F  F41  1  0.31956581  0.21550585  0.34747901  1
  F  F42  1  0.96550585  0.43043419  0.59747901  1
  F  F43  1  0.53449415  0.56956581  0.09747901  1
  F  F44  1  0.31956581  0.78449415  0.15252099  1
  F  F45  1  0.18043419  0.21550585  0.65252099  1
  F  F46  1  0.53449415  0.43043419  0.40252099  1
  F  F47  1  0.96550585  0.56956581  0.90252099  1
  F  F48  1  0.31956581  0.71550585  0.65252099  1
  F  F49  1  0.18043419  0.28449415  0.15252099  1
  F  F50  1  0.53449415  0.06956581  0.90252099  1
  F  F51  1  0.96550585  0.93043419  0.40252099  1
  F  F52  1  0.18043419  0.71550585  0.34747901  1
  F  F53  1  0.31956581  0.28449415  0.84747901  1
  F  F54  1  0.96550585  0.06956581  0.09747901  1
  F  F55  1  0.53449415  0.93043419  0.59747901  1
  F  F56  1  0.68043419  0.28449415  0.34747901  1
  F  F57  1  0.81956581  0.71550585  0.84747901  1
  F  F58  1  0.46550585  0.93043419  0.09747901  1
  F  F59  1  0.03449415  0.06956581  0.59747901  1
  F  F60  1  0.81956581  0.28449415  0.65252099  1
  F  F61  1  0.68043419  0.71550585  0.15252099  1
  F  F62  1  0.03449415  0.93043419  0.90252099  1
  F  F63  1  0.46550585  0.06956581  0.40252099  1
  Li  Li64  1  0.01215172  0.98114592  0.85602662  1
  Li  Li65  1  0.48784828  -0.98114592  1.35602662  1
  Li  Li66  1  -0.73114592  0.76215172  1.10602662  1
  Li  Li67  1  1.23114592  0.23784828  1.60602662  1
  Li  Li68  1  0.48784828  0.98114592  -0.85602662  1
  Li  Li69  1  0.01215172  -0.98114592  -0.35602662  1
  Li  Li70  1  1.23114592  0.76215172  -0.10602662  1
  Li  Li71  1  -0.73114592  0.23784828  -0.60602662  1
  Li  Li72  1  -0.01215172  -0.98114592  -0.85602662  1
  Li  Li73  1  0.51215172  0.98114592  -0.35602662  1
  Li  Li74  1  1.73114592  0.23784828  -0.10602662  1
  Li  Li75  1  -0.23114592  0.76215172  -0.60602662  1
  Li  Li76  1  0.51215172  -0.98114592  0.85602662  1
  Li  Li77  1  -0.01215172  0.98114592  1.35602662  1
  Li  Li78  1  -0.23114592  0.23784828  1.10602662  1
  Li  Li79  1  1.73114592  0.76215172  1.60602662  1
  Li  Li80  1  0.51215172  1.48114592  1.35602662  1
  Li  Li81  1  0.98784828  -0.48114592  1.85602662  1
  Li  Li82  1  -0.23114592  1.26215172  1.60602662  1
  Li  Li83  1  1.73114592  0.73784828  2.10602662  1
  Li  Li84  1  0.98784828  1.48114592  -0.35602662  1
  Li  Li85  1  0.51215172  -0.48114592  0.14397338  1
  Li  Li86  1  1.73114592  1.26215172  0.39397338  1
  Li  Li87  1  -0.23114592  0.73784828  -0.10602662  1
  Li  Li88  1  0.48784828  -0.48114592  -0.35602662  1
  Li  Li89  1  1.01215172  1.48114592  0.14397338  1
  Li  Li90  1  2.23114592  0.73784828  0.39397338  1
  Li  Li91  1  0.26885408  1.26215172  -0.10602662  1
  Li  Li92  1  1.01215172  -0.48114592  1.35602662  1
  Li  Li93  1  0.48784828  1.48114592  1.85602662  1
  Li  Li94  1  0.26885408  0.73784828  1.60602662  1
  Li  Li95  1  2.23114592  1.26215172  2.10602662  1
  Li  Li96  1  0.37431472  0.82741930  0.52491875  1
  Li  Li97  1  0.12568528  0.17258070  0.02491875  1
  Li  Li98  1  0.42258070  0.12431472  0.77491875  1
  Li  Li99  1  0.07741930  0.87568528  0.27491875  1
  Li  Li100  1  0.12568528  0.82741930  0.47508125  1
  Li  Li101  1  0.37431472  0.17258070  0.97508125  1
  Li  Li102  1  0.07741930  0.12431472  0.22508125  1
  Li  Li103  1  0.42258070  0.87568528  0.72508125  1
  Li  Li104  1  0.62568528  0.17258070  0.47508125  1
  Li  Li105  1  0.87431472  0.82741930  0.97508125  1
  Li  Li106  1  0.57741930  0.87568528  0.22508125  1
  Li  Li107  1  0.92258070  0.12431472  0.72508125  1
  Li  Li108  1  0.87431472  0.17258070  0.52491875  1
  Li  Li109  1  0.62568528  0.82741930  0.02491875  1
  Li  Li110  1  0.92258070  0.87568528  0.77491875  1
  Li  Li111  1  0.57741930  0.12431472  0.27491875  1
  Li  Li112  1  0.87431472  0.32741930  0.02491875  1
  Li  Li113  1  0.62568528  0.67258070  0.52491875  1
  Li  Li114  1  0.92258070  0.62431472  0.27491875  1
  Li  Li115  1  0.57741930  0.37568528  0.77491875  1
  Li  Li116  1  0.62568528  0.32741930  0.97508125  1
  Li  Li117  1  0.87431472  0.67258070  0.47508125  1
  Li  Li118  1  0.57741930  0.62431472  0.72508125  1
  Li  Li119  1  0.92258070  0.37568528  0.22508125  1
  Li  Li120  1  0.12568528  0.67258070  0.97508125  1
  Li  Li121  1  0.37431472  0.32741930  0.47508125  1
  Li  Li122  1  0.07741930  0.37568528  0.72508125  1
  Li  Li123  1  0.42258070  0.62431472  0.22508125  1
  Li  Li124  1  0.37431472  0.67258070  0.02491875  1
  Li  Li125  1  0.12568528  0.32741930  0.52491875  1
  Li  Li126  1  0.42258070  0.37568528  0.27491875  1
  Li  Li127  1  0.07741930  0.62431472  0.77491875  1
