# generated using pymatgen
data_LiF
_symmetry_space_group_name_H-M   'P 1'
_cell_length_a   12.21537756
_cell_length_b   8.19797924
_cell_length_c   5.96130994
_cell_angle_alpha   90.00000000
_cell_angle_beta   90.00000000
_cell_angle_gamma   90.00000000
_symmetry_Int_Tables_number   1
_chemical_formula_structural   LiF
_chemical_formula_sum   'Li42 F42'
_cell_volume   596.97399270
_cell_formula_units_Z   42
loop_
 _symmetry_equiv_pos_site_id
 _symmetry_equiv_pos_as_xyz
  1  'x, y, z'
loop_
 _atom_site_type_symbol
 _atom_site_label
 _atom_site_symmetry_multiplicity
 _atom_site_fract_x
 _atom_site_fract_y
 _atom_site_fract_z
 _atom_site_occupancy
  F  F0  1  0.77967698  0.05129829  0.16195663  1
  F  F1  1  0.22032302  0.94870171  0.16195663  1
  F  F2  1  0.72032302  0.55129829  0.83804337  1
  F  F3  1  0.27967698  0.44870171  0.83804337  1
  F  F4  1  0.22032302  0.94870171  0.83804337  1
  F  F5  1  0.77967698  0.05129829  0.83804337  1
  F  F6  1  0.27967698  0.44870171  0.16195663  1
  F  F7  1  0.72032302  0.55129829  0.16195663  1
  F  F8  1  0.62158635  0.72501870  0.60612204  1
  F  F9  1  0.37841365  0.27498130  0.60612204  1
  F  F10  1  0.87841365  0.22501870  0.39387796  1
  F  F11  1  0.12158635  0.77498130  0.39387796  1
  F  F12  1  0.37841365  0.27498130  0.39387796  1
  F  F13  1  0.62158635  0.72501870  0.39387796  1
  F  F14  1  0.12158635  0.77498130  0.60612204  1
  F  F15  1  0.87841365  0.22501870  0.60612204  1
  F  F16  1  0.00000000  0.50000000  0.50000000  1
  F  F17  1  0.50000000  0.00000000  0.50000000  1
  F  F18  1  0.09908029  0.59252157  0.00000000  1
  F  F19  1  0.90091971  0.40747843  -0.00000000  1
  F  F20  1  0.40091971  0.09252157  0.00000000  1
  F  F21  1  0.59908029  0.90747843  -0.00000000  1
  F  F22  1  0.90849953  0.17465497  0.10578896  1
  F  F23  1  0.09150047  0.82534503  0.10578896  1
  F  F24  1  0.59150047  0.67465497  0.89421104  1
  F  F25  1  0.40849953  0.32534503  0.89421104  1
  F  F26  1  0.09150047  0.82534503  0.89421104  1
  F  F27  1  0.90849953  0.17465497  0.89421104  1
  F  F28  1  0.40849953  0.32534503  0.10578896  1
  F  F29  1  0.59150047  0.67465497  0.10578896  1
  F  F30  1  0.53592693  0.26065950  0.42293901  1
  F  F31  1  0.46407307  0.73934050  0.42293901  1
  F  F32  1  0.96407307  0.76065950  0.57706099  1
  F  F33  1  0.03592693  0.23934050  0.57706099  1
  F  F34  1  0.46407307  0.73934050  0.57706099  1
  F  F35  1  0.53592693  0.26065950  0.57706099  1
  F  F36  1  0.03592693  0.23934050  0.42293901  1
  F  F37  1  0.96407307  0.76065950  0.42293901  1
  F  F38  1  0.22095709  0.62239510  0.00000000  1
  F  F39  1  0.77904291  0.37760490  -0.00000000  1
  F  F40  1  0.27904291  0.12239510  -0.00000000  1
  F  F41  1  0.72095709  0.87760490  -0.00000000  1
  Li  Li42  1  0.00000000  0.00000000  0.50000000  1
  Li  Li43  1  0.50000000  0.50000000  0.50000000  1
  Li  Li44  1  0.10482517  0.44627910  0.50000000  1
  Li  Li45  1  0.89517483  0.55372090  0.50000000  1
  Li  Li46  1  0.39517483  0.94627910  0.50000000  1
  Li  Li47  1  0.60482517  0.05372090  0.50000000  1
  Li  Li48  1  0.30903801  0.82925677  0.69079533  1
  Li  Li49  1  -0.30903801  -0.82925677  0.69079533  1
  Li  Li50  1  0.19096199  1.32925677  -0.69079533  1
  Li  Li51  1  0.80903801  -0.32925677  -0.69079533  1
  Li  Li52  1  -0.30903801  -0.82925677  -0.69079533  1
  Li  Li53  1  0.30903801  0.82925677  -0.69079533  1
  Li  Li54  1  0.80903801  -0.32925677  0.69079533  1
  Li  Li55  1  0.19096199  1.32925677  0.69079533  1
  Li  Li56  1  0.19669432  0.71037891  0.35557108  1
  Li  Li57  1  0.80330568  0.28962109  0.35557108  1
  Li  Li58  1  0.30330568  0.21037891  0.64442892  1
  Li  Li59  1  0.69669432  0.78962109  0.64442892  1
  Li  Li60  1  0.80330568  0.28962109  0.64442892  1
  Li  Li61  1  0.19669432  0.71037891  0.64442892  1
  Li  Li62  1  0.69669432  0.78962109  0.35557108  1
  Li  Li63  1  0.30330568  0.21037891  0.35557108  1
  Li  Li64  1  0.00000000  0.50000000  0.00000000  1
  Li  Li65  1  0.50000000  0.00000000  0.00000000  1
  Li  Li66  1  0.09782844  0.55163015  0.82698806  1
  Li  Li67  1  0.90217156  0.44836985  0.82698806  1
  Li  Li68  1  0.40217156  0.05163015  0.17301194  1
  Li  Li69  1  0.59782844  0.94836985  0.17301194  1
  Li  Li70  1  0.90217156  0.44836985  0.17301194  1
  Li  Li71  1  0.09782844  0.55163015  0.17301194  1
  Li  Li72  1  0.59782844  0.94836985  0.82698806  1
  Li  Li73  1  0.40217156  0.05163015  0.82698806  1
  Li  Li74  1  0.83113384  0.54591225  -0.00000000  1
  Li  Li75  1  0.16886616  0.45408775  0.00000000  1
  Li  Li76  1  0.66886616  0.04591225  -0.00000000  1
  Li  Li77  1  0.33113384  0.95408775  0.00000000  1
  Li  Li78  1  0.12304494  0.23259135  0.50000000  1
  Li  Li79  1  0.87695506  0.76740865  0.50000000  1
  Li  Li80  1  0.37695506  0.73259135  0.50000000  1
  Li  Li81  1  0.62304494  0.26740865  0.50000000  1
  Li  Li82  1  0.00000000  0.00000000  0.00000000  1
  Li  Li83  1  0.50000000  0.50000000  -0.00000000  1
