# generated using pymatgen
data_LiYPSe
_symmetry_space_group_name_H-M   'P 1'
_cell_length_a   5.40394775
_cell_length_b   5.54238009
_cell_length_c   7.10818842
_cell_angle_alpha   94.06460365
_cell_angle_beta   98.85186173
_cell_angle_gamma   106.32589740
_symmetry_Int_Tables_number   1
_chemical_formula_structural   LiYPSe
_chemical_formula_sum   'Li2 Y2 P2 Se2'
_cell_volume   200.40996151
_cell_formula_units_Z   2
loop_
 _symmetry_equiv_pos_site_id
 _symmetry_equiv_pos_as_xyz
  1  'x, y, z'
loop_
 _atom_site_type_symbol
 _atom_site_label
 _atom_site_symmetry_multiplicity
 _atom_site_fract_x
 _atom_site_fract_y
 _atom_site_fract_z
 _atom_site_occupancy
  Se  Se0  1  0.00000000  0.00000000  0.00000000  1
  Se  Se1  1  0.33300000  0.66700000  0.25000000  1
  P  P2  1  0.66700000  0.33300000  0.50000000  1
  P  P3  1  0.00000000  0.00000000  0.75000000  1
  Li  Li4  1  0.56620506  0.54867315  0.12299731  1
  Li  Li5  1  0.35054116  0.24198354  0.02357982  1
  Y  Y6  1  0.88801146  0.77195807  0.82305035  1
  Y  Y7  1  0.20462380  0.82464326  0.97828256  1
