# generated using pymatgen
data_LiF
_symmetry_space_group_name_H-M   'P 1'
_cell_length_a   7.86389759
_cell_length_b   7.01483967
_cell_length_c   6.13185743
_cell_angle_alpha   90.00000000
_cell_angle_beta   90.00000000
_cell_angle_gamma   90.00000000
_symmetry_Int_Tables_number   1
_chemical_formula_structural   LiF
_chemical_formula_sum   'Li22 F22'
_cell_volume   338.25766509
_cell_formula_units_Z   22
loop_
 _symmetry_equiv_pos_site_id
 _symmetry_equiv_pos_as_xyz
  1  'x, y, z'
loop_
 _atom_site_type_symbol
 _atom_site_label
 _atom_site_symmetry_multiplicity
 _atom_site_fract_x
 _atom_site_fract_y
 _atom_site_fract_z
 _atom_site_occupancy
  F  F0  1  0.67141990  0.08236930  0.00000000  1
  F  F1  1  0.32858010  0.91763070  0.00000000  1
  F  F2  1  0.82858010  0.58236930  0.00000000  1
  F  F3  1  0.17141990  0.41763070  0.00000000  1
  F  F4  1  0.67978178  0.84856529  0.00000000  1
  F  F5  1  0.32021822  0.15143471  0.00000000  1
  F  F6  1  0.82021822  0.34856529  0.00000000  1
  F  F7  1  0.17978178  0.65143471  0.00000000  1
  F  F8  1  0.00000000  0.50000000  0.00000000  1
  F  F9  1  0.50000000  0.00000000  0.00000000  1
  F  F10  1  0.54651498  0.26010535  0.27037452  1
  F  F11  1  0.45348502  0.73989465  0.27037452  1
  F  F12  1  0.95348502  0.76010535  0.72962548  1
  F  F13  1  0.04651498  0.23989465  0.72962548  1
  F  F14  1  0.45348502  0.73989465  0.72962548  1
  F  F15  1  0.54651498  0.26010535  0.72962548  1
  F  F16  1  0.04651498  0.23989465  0.27037452  1
  F  F17  1  0.95348502  0.76010535  0.27037452  1
  F  F18  1  0.87300351  0.61688517  0.50000000  1
  F  F19  1  0.12699649  0.38311483  0.50000000  1
  F  F20  1  0.62699649  0.11688517  0.50000000  1
  F  F21  1  0.37300351  0.88311483  0.50000000  1
  Li  Li22  1  0.00000000  0.00000000  0.50000000  1
  Li  Li23  1  0.50000000  0.50000000  0.50000000  1
  Li  Li24  1  0.67964812  0.87446413  0.28697908  1
  Li  Li25  1  -0.67964812  -0.87446413  0.28697908  1
  Li  Li26  1  -0.17964812  1.37446413  -0.28697908  1
  Li  Li27  1  1.17964812  -0.37446413  -0.28697908  1
  Li  Li28  1  -0.67964812  -0.87446413  -0.28697908  1
  Li  Li29  1  0.67964812  0.87446413  -0.28697908  1
  Li  Li30  1  1.17964812  -0.37446413  0.28697908  1
  Li  Li31  1  -0.17964812  1.37446413  0.28697908  1
  Li  Li32  1  0.00000000  0.00000000  0.00000000  1
  Li  Li33  1  0.50000000  0.50000000  0.00000000  1
  Li  Li34  1  0.86826378  0.79294630  0.50000000  1
  Li  Li35  1  0.13173622  0.20705370  0.50000000  1
  Li  Li36  1  0.63173622  0.29294630  0.50000000  1
  Li  Li37  1  0.36826378  0.70705370  0.50000000  1
  Li  Li38  1  0.00000000  0.50000000  0.50000000  1
  Li  Li39  1  0.50000000  0.00000000  0.50000000  1
  Li  Li40  1  0.80482233  0.07000070  0.00000000  1
  Li  Li41  1  0.19517767  0.92999930  0.00000000  1
  Li  Li42  1  0.69517767  0.57000070  0.00000000  1
  Li  Li43  1  0.30482233  0.42999930  0.00000000  1
