# generated using pymatgen
data_Li2YTi(P2Pb)2
_symmetry_space_group_name_H-M   'P 1'
_cell_length_a   5.60926370
_cell_length_b   5.62800501
_cell_length_c   7.46895505
_cell_angle_alpha   95.58212746
_cell_angle_beta   100.59141746
_cell_angle_gamma   104.81435780
_symmetry_Int_Tables_number   1
_chemical_formula_structural   Li2YTi(P2Pb)2
_chemical_formula_sum   'Li2 Y1 Ti1 P4 Pb2'
_cell_volume   221.46865909
_cell_formula_units_Z   1
loop_
 _symmetry_equiv_pos_site_id
 _symmetry_equiv_pos_as_xyz
  1  'x, y, z'
loop_
 _atom_site_type_symbol
 _atom_site_label
 _atom_site_symmetry_multiplicity
 _atom_site_fract_x
 _atom_site_fract_y
 _atom_site_fract_z
 _atom_site_occupancy
  Pb  Pb0  1  0.00000000  0.00000000  0.00000000  1
  Pb  Pb1  1  0.50000000  0.50000000  0.50000000  1
  P  P2  1  0.50000000  0.50000000  0.00000000  1
  P  P3  1  0.50000000  0.00000000  0.50000000  1
  P  P4  1  0.00000000  0.50000000  0.50000000  1
  P  P5  1  0.41892452  0.17050386  0.50717292  1
  Ti  Ti6  1  0.80730328  0.52871854  0.38722808  1
  Li  Li7  1  0.81696858  0.88420373  0.98027044  1
  Li  Li8  1  0.96530307  0.07716662  0.90397449  1
  Y  Y9  1  0.06504308  0.65207359  0.53019023  1
