# generated using pymatgen
data_LiF
_symmetry_space_group_name_H-M   'P 1'
_cell_length_a   8.74298926
_cell_length_b   8.74298926
_cell_length_c   17.58164866
_cell_angle_alpha   90.00000000
_cell_angle_beta   90.00000000
_cell_angle_gamma   90.00000000
_symmetry_Int_Tables_number   1
_chemical_formula_structural   LiF
_chemical_formula_sum   'Li64 F64'
_cell_volume   1343.93878345
_cell_formula_units_Z   64
loop_
 _symmetry_equiv_pos_site_id
 _symmetry_equiv_pos_as_xyz
  1  'x, y, z'
loop_
 _atom_site_type_symbol
 _atom_site_label
 _atom_site_symmetry_multiplicity
 _atom_site_fract_x
 _atom_site_fract_y
 _atom_site_fract_z
 _atom_site_occupancy
  F  F0  1  0.69029952  0.41486044  0.50000000  1
  F  F1  1  0.30970048  0.58513956  0.50000000  1
  F  F2  1  0.58513956  0.69029952  0.50000000  1
  F  F3  1  0.41486044  0.30970048  0.50000000  1
  F  F4  1  0.30970048  0.41486044  0.50000000  1
  F  F5  1  0.69029952  0.58513956  0.50000000  1
  F  F6  1  0.41486044  0.69029952  0.50000000  1
  F  F7  1  0.58513956  0.30970048  0.50000000  1
  F  F8  1  0.50000000  0.50000000  0.50000000  1
  F  F9  1  0.93983609  0.00000000  0.31367118  1
  F  F10  1  0.06016391  0.00000000  0.31367118  1
  F  F11  1  0.00000000  0.93983609  0.31367118  1
  F  F12  1  0.00000000  0.06016391  0.31367118  1
  F  F13  1  0.06016391  0.00000000  0.68632882  1
  F  F14  1  0.93983609  0.00000000  0.68632882  1
  F  F15  1  0.00000000  0.93983609  0.68632882  1
  F  F16  1  0.00000000  0.06016391  0.68632882  1
  F  F17  1  0.73228595  0.56780964  0.96946199  1
  F  F18  1  -0.73228595  -0.56780964  0.96946199  1
  F  F19  1  -0.56780964  0.73228595  0.96946199  1
  F  F20  1  0.56780964  -0.73228595  0.96946199  1
  F  F21  1  -0.73228595  0.56780964  -0.96946199  1
  F  F22  1  0.73228595  -0.56780964  -0.96946199  1
  F  F23  1  0.56780964  0.73228595  -0.96946199  1
  F  F24  1  -0.56780964  -0.73228595  -0.96946199  1
  F  F25  1  -0.73228595  -0.56780964  -0.96946199  1
  F  F26  1  0.73228595  0.56780964  -0.96946199  1
  F  F27  1  0.56780964  -0.73228595  -0.96946199  1
  F  F28  1  -0.56780964  0.73228595  -0.96946199  1
  F  F29  1  0.73228595  -0.56780964  0.96946199  1
  F  F30  1  -0.73228595  0.56780964  0.96946199  1
  F  F31  1  -0.56780964  -0.73228595  0.96946199  1
  F  F32  1  0.56780964  0.73228595  0.96946199  1
  F  F33  1  0.85738400  0.85738400  0.21096962  1
  F  F34  1  0.14261600  0.14261600  0.21096962  1
  F  F35  1  0.14261600  0.85738400  0.21096962  1
  F  F36  1  0.85738400  0.14261600  0.21096962  1
  F  F37  1  0.14261600  0.85738400  0.78903038  1
  F  F38  1  0.85738400  0.14261600  0.78903038  1
  F  F39  1  0.85738400  0.85738400  0.78903038  1
  F  F40  1  0.14261600  0.14261600  0.78903038  1
  F  F41  1  0.33941432  0.33941432  0.82341843  1
  F  F42  1  0.66058568  0.66058568  0.82341843  1
  F  F43  1  0.66058568  0.33941432  0.82341843  1
  F  F44  1  0.33941432  0.66058568  0.82341843  1
  F  F45  1  0.66058568  0.33941432  0.17658157  1
  F  F46  1  0.33941432  0.66058568  0.17658157  1
  F  F47  1  0.33941432  0.33941432  0.17658157  1
  F  F48  1  0.66058568  0.66058568  0.17658157  1
  F  F49  1  0.56290109  0.30782697  0.00000000  1
  F  F50  1  0.43709891  0.69217303  0.00000000  1
  F  F51  1  0.69217303  0.56290109  0.00000000  1
  F  F52  1  0.30782697  0.43709891  0.00000000  1
  F  F53  1  0.43709891  0.30782697  0.00000000  1
  F  F54  1  0.56290109  0.69217303  0.00000000  1
  F  F55  1  0.30782697  0.56290109  0.00000000  1
  F  F56  1  0.69217303  0.43709891  -0.00000000  1
  F  F57  1  0.90344442  0.50000000  0.50000000  1
  F  F58  1  0.09655558  0.50000000  0.50000000  1
  F  F59  1  0.50000000  0.90344442  0.50000000  1
  F  F60  1  0.50000000  0.09655558  0.50000000  1
  F  F61  1  0.00000000  0.00000000  0.04831855  1
  F  F62  1  0.00000000  0.00000000  0.95168145  1
  F  F63  1  0.50000000  0.50000000  0.00000000  1
  Li  Li64  1  0.41961118  0.41961118  0.50000000  1
  Li  Li65  1  0.58038882  0.58038882  0.50000000  1
  Li  Li66  1  0.58038882  0.41961118  0.50000000  1
  Li  Li67  1  0.41961118  0.58038882  0.50000000  1
  Li  Li68  1  0.28880475  0.00000000  0.50000000  1
  Li  Li69  1  0.71119525  0.00000000  0.50000000  1
  Li  Li70  1  0.00000000  0.28880475  0.50000000  1
  Li  Li71  1  0.00000000  0.71119525  0.50000000  1
  Li  Li72  1  0.63782444  0.84962090  0.57667173  1
  Li  Li73  1  0.36217556  0.15037910  0.57667173  1
  Li  Li74  1  0.15037910  0.63782444  0.57667173  1
  Li  Li75  1  0.84962090  0.36217556  0.57667173  1
  Li  Li76  1  0.36217556  0.84962090  0.42332827  1
  Li  Li77  1  0.63782444  0.15037910  0.42332827  1
  Li  Li78  1  0.84962090  0.63782444  0.42332827  1
  Li  Li79  1  0.15037910  0.36217556  0.42332827  1
  Li  Li80  1  0.36217556  0.15037910  0.42332827  1
  Li  Li81  1  0.63782444  0.84962090  0.42332827  1
  Li  Li82  1  0.84962090  0.36217556  0.42332827  1
  Li  Li83  1  0.15037910  0.63782444  0.42332827  1
  Li  Li84  1  0.63782444  0.15037910  0.57667173  1
  Li  Li85  1  0.36217556  0.84962090  0.57667173  1
  Li  Li86  1  0.15037910  0.36217556  0.57667173  1
  Li  Li87  1  0.84962090  0.63782444  0.57667173  1
  Li  Li88  1  0.33137319  0.33137319  0.29745230  1
  Li  Li89  1  0.66862681  0.66862681  0.29745230  1
  Li  Li90  1  0.66862681  0.33137319  0.29745230  1
  Li  Li91  1  0.33137319  0.66862681  0.29745230  1
  Li  Li92  1  0.66862681  0.33137319  0.70254770  1
  Li  Li93  1  0.33137319  0.66862681  0.70254770  1
  Li  Li94  1  0.33137319  0.33137319  0.70254770  1
  Li  Li95  1  0.66862681  0.66862681  0.70254770  1
  Li  Li96  1  0.74356445  0.50000000  0.08477122  1
  Li  Li97  1  0.25643555  0.50000000  0.08477122  1
  Li  Li98  1  0.50000000  0.74356445  0.08477122  1
  Li  Li99  1  0.50000000  0.25643555  0.08477122  1
  Li  Li100  1  0.25643555  0.50000000  0.91522878  1
  Li  Li101  1  0.74356445  0.50000000  0.91522878  1
  Li  Li102  1  0.50000000  0.74356445  0.91522878  1
  Li  Li103  1  0.50000000  0.25643555  0.91522878  1
  Li  Li104  1  0.86353079  0.32194490  0.86436191  1
  Li  Li105  1  0.13646921  0.67805510  0.86436191  1
  Li  Li106  1  0.67805510  0.86353079  0.86436191  1
  Li  Li107  1  0.32194490  0.13646921  0.86436191  1
  Li  Li108  1  0.13646921  0.32194490  0.13563809  1
  Li  Li109  1  0.86353079  0.67805510  0.13563809  1
  Li  Li110  1  0.32194490  0.86353079  0.13563809  1
  Li  Li111  1  0.67805510  0.13646921  0.13563809  1
  Li  Li112  1  0.13646921  0.67805510  0.13563809  1
  Li  Li113  1  0.86353079  0.32194490  0.13563809  1
  Li  Li114  1  0.32194490  0.13646921  0.13563809  1
  Li  Li115  1  0.67805510  0.86353079  0.13563809  1
  Li  Li116  1  0.86353079  0.67805510  0.86436191  1
  Li  Li117  1  0.13646921  0.32194490  0.86436191  1
  Li  Li118  1  0.67805510  0.13646921  0.86436191  1
  Li  Li119  1  0.32194490  0.86353079  0.86436191  1
  Li  Li120  1  0.27771627  0.00000000  0.09894785  1
  Li  Li121  1  0.72228373  0.00000000  0.09894785  1
  Li  Li122  1  0.00000000  0.27771627  0.09894785  1
  Li  Li123  1  0.00000000  0.72228373  0.09894785  1
  Li  Li124  1  0.72228373  0.00000000  0.90105215  1
  Li  Li125  1  0.27771627  0.00000000  0.90105215  1
  Li  Li126  1  0.00000000  0.27771627  0.90105215  1
  Li  Li127  1  0.00000000  0.72228373  0.90105215  1
