# generated using pymatgen
data_Li4TeF2
_symmetry_space_group_name_H-M   'P 1'
_cell_length_a   12.25311685
_cell_length_b   12.25311685
_cell_length_c   20.40419705
_cell_angle_alpha   90.00000000
_cell_angle_beta   90.00000000
_cell_angle_gamma   120.00000000
_symmetry_Int_Tables_number   1
_chemical_formula_structural   Li4TeF2
_chemical_formula_sum   'Li96 Te24 F48'
_cell_volume   2653.03690412
_cell_formula_units_Z   24
loop_
 _symmetry_equiv_pos_site_id
 _symmetry_equiv_pos_as_xyz
  1  'x, y, z'
loop_
 _atom_site_type_symbol
 _atom_site_label
 _atom_site_symmetry_multiplicity
 _atom_site_fract_x
 _atom_site_fract_y
 _atom_site_fract_z
 _atom_site_occupancy
  F  F0  1  0.40051383  0.53280394  0.97329047  1
  F  F1  1  -0.53280394  -0.13229012  0.97329047  1
  F  F2  1  0.13229012  -0.40051383  0.97329047  1
  F  F3  1  0.53280394  0.40051383  -0.47329047  1
  F  F4  1  -0.13229012  -0.53280394  -0.47329047  1
  F  F5  1  -0.40051383  0.13229012  -0.47329047  1
  F  F6  1  -0.40051383  -0.53280394  -0.97329047  1
  F  F7  1  0.53280394  0.13229012  -0.97329047  1
  F  F8  1  -0.13229012  0.40051383  -0.97329047  1
  F  F9  1  -0.53280394  -0.40051383  1.47329047  1
  F  F10  1  0.13229012  0.53280394  1.47329047  1
  F  F11  1  0.40051383  -0.13229012  1.47329047  1
  F  F12  1  1.06718049  0.86613728  1.30662380  1
  F  F13  1  0.13386272  0.20104322  1.30662380  1
  F  F14  1  0.79895678  -0.06718049  1.30662380  1
  F  F15  1  1.19947061  0.73384716  -0.13995713  1
  F  F16  1  0.53437655  -0.19947061  -0.13995713  1
  F  F17  1  0.26615284  0.46562345  -0.13995713  1
  F  F18  1  0.26615284  -0.19947061  -0.63995713  1
  F  F19  1  1.19947061  0.46562345  -0.63995713  1
  F  F20  1  0.53437655  0.73384716  -0.63995713  1
  F  F21  1  0.13386272  -0.06718049  1.80662380  1
  F  F22  1  0.79895678  0.86613728  1.80662380  1
  F  F23  1  1.06718049  0.20104322  1.80662380  1
  F  F24  1  0.73384716  1.19947061  1.63995713  1
  F  F25  1  -0.19947061  0.53437655  1.63995713  1
  F  F26  1  0.46562345  0.26615284  1.63995713  1
  F  F27  1  0.86613728  1.06718049  0.19337620  1
  F  F28  1  0.20104322  0.13386272  0.19337620  1
  F  F29  1  -0.06718049  0.79895678  0.19337620  1
  F  F30  1  -0.06718049  0.13386272  -0.30662380  1
  F  F31  1  0.86613728  0.79895678  -0.30662380  1
  F  F32  1  0.20104322  1.06718049  -0.30662380  1
  F  F33  1  -0.19947061  0.26615284  2.13995713  1
  F  F34  1  0.46562345  1.19947061  2.13995713  1
  F  F35  1  0.73384716  0.53437655  2.13995713  1
  F  F36  1  0.00000000  0.00000000  0.85246469  1
  F  F37  1  0.00000000  0.00000000  0.64753531  1
  F  F38  1  0.00000000  0.00000000  0.14753531  1
  F  F39  1  0.00000000  0.00000000  0.35246469  1
  F  F40  1  0.66666667  0.33333333  0.18579802  1
  F  F41  1  0.66666667  0.33333333  0.98086865  1
  F  F42  1  0.66666667  0.33333333  0.48086865  1
  F  F43  1  0.66666667  0.33333333  0.68579802  1
  F  F44  1  0.33333333  0.66666667  0.51913135  1
  F  F45  1  0.33333333  0.66666667  0.31420198  1
  F  F46  1  0.33333333  0.66666667  0.81420198  1
  F  F47  1  0.33333333  0.66666667  0.01913135  1
  Li  Li48  1  0.93673100  0.17272837  0.90315226  1
  Li  Li49  1  0.82727163  0.76400263  0.90315226  1
  Li  Li50  1  0.23599737  0.06326900  0.90315226  1
  Li  Li51  1  0.17272837  0.93673100  0.59684774  1
  Li  Li52  1  0.76400263  0.82727163  0.59684774  1
  Li  Li53  1  0.06326900  0.23599737  0.59684774  1
  Li  Li54  1  0.06326900  0.82727163  0.09684774  1
  Li  Li55  1  0.17272837  0.23599737  0.09684774  1
  Li  Li56  1  0.76400263  0.93673100  0.09684774  1
  Li  Li57  1  0.82727163  0.06326900  0.40315226  1
  Li  Li58  1  0.23599737  0.17272837  0.40315226  1
  Li  Li59  1  0.93673100  0.76400263  0.40315226  1
  Li  Li60  1  0.60339767  0.50606170  0.23648559  1
  Li  Li61  1  0.49393830  0.09733596  0.23648559  1
  Li  Li62  1  0.90266404  0.39660233  0.23648559  1
  Li  Li63  1  0.83939504  0.27006434  0.93018107  1
  Li  Li64  1  0.43066930  0.16060496  0.93018107  1
  Li  Li65  1  0.72993566  0.56933070  0.93018107  1
  Li  Li66  1  0.72993566  0.16060496  0.43018107  1
  Li  Li67  1  0.83939504  0.56933070  0.43018107  1
  Li  Li68  1  0.43066930  0.27006434  0.43018107  1
  Li  Li69  1  0.49393830  0.39660233  0.73648559  1
  Li  Li70  1  0.90266404  0.50606170  0.73648559  1
  Li  Li71  1  0.60339767  0.09733596  0.73648559  1
  Li  Li72  1  0.27006434  0.83939504  0.56981893  1
  Li  Li73  1  0.16060496  0.43066930  0.56981893  1
  Li  Li74  1  0.56933070  0.72993566  0.56981893  1
  Li  Li75  1  0.50606170  0.60339767  0.26351441  1
  Li  Li76  1  0.09733596  0.49393830  0.26351441  1
  Li  Li77  1  0.39660233  0.90266404  0.26351441  1
  Li  Li78  1  0.39660233  0.49393830  0.76351441  1
  Li  Li79  1  0.50606170  0.90266404  0.76351441  1
  Li  Li80  1  0.09733596  0.60339767  0.76351441  1
  Li  Li81  1  0.16060496  0.72993566  0.06981893  1
  Li  Li82  1  0.56933070  0.83939504  0.06981893  1
  Li  Li83  1  0.27006434  0.43066930  0.06981893  1
  Li  Li84  1  0.70505504  0.17339066  0.14167318  1
  Li  Li85  1  0.82660934  0.53166439  0.14167318  1
  Li  Li86  1  0.46833561  0.29494496  0.14167318  1
  Li  Li87  1  0.17339066  0.70505504  0.35832682  1
  Li  Li88  1  0.53166439  0.82660934  0.35832682  1
  Li  Li89  1  0.29494496  0.46833561  0.35832682  1
  Li  Li90  1  0.29494496  0.82660934  0.85832682  1
  Li  Li91  1  0.17339066  0.46833561  0.85832682  1
  Li  Li92  1  0.53166439  0.70505504  0.85832682  1
  Li  Li93  1  0.82660934  0.29494496  0.64167318  1
  Li  Li94  1  0.46833561  0.17339066  0.64167318  1
  Li  Li95  1  0.70505504  0.53166439  0.64167318  1
  Li  Li96  1  0.37172171  0.50672399  0.47500651  1
  Li  Li97  1  0.49327601  0.86499772  0.47500651  1
  Li  Li98  1  0.13500228  0.62827829  0.47500651  1
  Li  Li99  1  0.84005732  0.03838838  0.69166015  1
  Li  Li100  1  0.19833105  0.15994268  0.69166015  1
  Li  Li101  1  0.96161162  0.80166895  0.69166015  1
  Li  Li102  1  0.96161162  0.15994268  0.19166015  1
  Li  Li103  1  0.84005732  0.80166895  0.19166015  1
  Li  Li104  1  0.19833105  0.03838838  0.19166015  1
  Li  Li105  1  0.49327601  0.62827829  0.97500651  1
  Li  Li106  1  0.13500228  0.50672399  0.97500651  1
  Li  Li107  1  0.37172171  0.86499772  0.97500651  1
  Li  Li108  1  0.03838838  0.84005732  0.80833985  1
  Li  Li109  1  0.15994268  0.19833105  0.80833985  1
  Li  Li110  1  0.80166895  0.96161162  0.80833985  1
  Li  Li111  1  0.50672399  0.37172171  0.02499349  1
  Li  Li112  1  0.86499772  0.49327601  0.02499349  1
  Li  Li113  1  0.62827829  0.13500228  0.02499349  1
  Li  Li114  1  0.62827829  0.49327601  0.52499349  1
  Li  Li115  1  0.50672399  0.13500228  0.52499349  1
  Li  Li116  1  0.86499772  0.37172171  0.52499349  1
  Li  Li117  1  0.15994268  0.96161162  0.30833985  1
  Li  Li118  1  0.80166895  0.84005732  0.30833985  1
  Li  Li119  1  0.03838838  0.19833105  0.30833985  1
  Li  Li120  1  0.00000000  0.00000000  0.25000000  1
  Li  Li121  1  0.00000000  0.00000000  0.75000000  1
  Li  Li122  1  0.66666667  0.33333333  0.58333333  1
  Li  Li123  1  0.66666667  0.33333333  0.08333333  1
  Li  Li124  1  0.33333333  0.66666667  0.91666667  1
  Li  Li125  1  0.33333333  0.66666667  0.41666667  1
  Li  Li126  1  0.38409583  0.00000000  0.25000000  1
  Li  Li127  1  0.00000000  0.38409583  0.25000000  1
  Li  Li128  1  0.61590417  0.61590417  0.25000000  1
  Li  Li129  1  0.61590417  -0.00000000  0.75000000  1
  Li  Li130  1  0.00000000  0.61590417  0.75000000  1
  Li  Li131  1  0.38409583  0.38409583  0.75000000  1
  Li  Li132  1  0.05076250  0.33333333  0.58333333  1
  Li  Li133  1  0.66666667  0.71742917  0.58333333  1
  Li  Li134  1  0.28257083  0.94923750  0.58333333  1
  Li  Li135  1  0.28257083  0.33333333  0.08333333  1
  Li  Li136  1  0.66666667  0.94923750  0.08333333  1
  Li  Li137  1  0.05076250  0.71742917  0.08333333  1
  Li  Li138  1  0.71742917  0.66666667  0.91666667  1
  Li  Li139  1  0.33333333  0.05076250  0.91666667  1
  Li  Li140  1  0.94923750  0.28257083  0.91666667  1
  Li  Li141  1  0.94923750  0.66666667  0.41666667  1
  Li  Li142  1  0.33333333  0.28257083  0.41666667  1
  Li  Li143  1  0.71742917  0.05076250  0.41666667  1
  Te  Te144  1  0.00000000  0.00000000  0.00000000  1
  Te  Te145  1  0.00000000  0.00000000  0.50000000  1
  Te  Te146  1  0.66666667  0.33333333  0.33333333  1
  Te  Te147  1  0.66666667  0.33333333  0.83333333  1
  Te  Te148  1  0.33333333  0.66666667  0.66666667  1
  Te  Te149  1  0.33333333  0.66666667  0.16666667  1
  Te  Te150  1  0.50000000  0.00000000  0.00000000  1
  Te  Te151  1  0.00000000  0.50000000  0.00000000  1
  Te  Te152  1  0.50000000  0.50000000  0.00000000  1
  Te  Te153  1  0.00000000  0.50000000  0.50000000  1
  Te  Te154  1  0.50000000  0.00000000  0.50000000  1
  Te  Te155  1  0.50000000  0.50000000  0.50000000  1
  Te  Te156  1  0.16666667  0.33333333  0.33333333  1
  Te  Te157  1  0.66666667  0.83333333  0.33333333  1
  Te  Te158  1  0.16666667  0.83333333  0.33333333  1
  Te  Te159  1  0.66666667  0.83333333  0.83333333  1
  Te  Te160  1  0.16666667  0.33333333  0.83333333  1
  Te  Te161  1  0.16666667  0.83333333  0.83333333  1
  Te  Te162  1  0.83333333  0.66666667  0.66666667  1
  Te  Te163  1  0.33333333  0.16666667  0.66666667  1
  Te  Te164  1  0.83333333  0.16666667  0.66666667  1
  Te  Te165  1  0.33333333  0.16666667  0.16666667  1
  Te  Te166  1  0.83333333  0.66666667  0.16666667  1
  Te  Te167  1  0.83333333  0.16666667  0.16666667  1
