# generated using pymatgen
data_Li4TeF2
_symmetry_space_group_name_H-M   'P 1'
_cell_length_a   14.46722241
_cell_length_b   14.46722241
_cell_length_c   18.45809214
_cell_angle_alpha   90.00000000
_cell_angle_beta   90.00000000
_cell_angle_gamma   120.00000000
_symmetry_Int_Tables_number   1
_chemical_formula_structural   Li4TeF2
_chemical_formula_sum   'Li96 Te24 F48'
_cell_volume   3345.70586216
_cell_formula_units_Z   24
loop_
 _symmetry_equiv_pos_site_id
 _symmetry_equiv_pos_as_xyz
  1  'x, y, z'
loop_
 _atom_site_type_symbol
 _atom_site_label
 _atom_site_symmetry_multiplicity
 _atom_site_fract_x
 _atom_site_fract_y
 _atom_site_fract_z
 _atom_site_occupancy
  F  F0  1  0.91649703  0.00000000  0.17107785  1
  F  F1  1  0.00000000  0.91649703  0.17107785  1
  F  F2  1  0.08350297  0.08350297  0.17107785  1
  F  F3  1  0.91649703  0.00000000  0.82892215  1
  F  F4  1  0.00000000  0.91649703  0.82892215  1
  F  F5  1  0.08350297  0.08350297  0.82892215  1
  F  F6  1  0.54004020  0.60387925  0.81662274  1
  F  F7  1  -0.60387925  -0.06383906  0.81662274  1
  F  F8  1  0.06383906  -0.54004020  0.81662274  1
  F  F9  1  0.54004020  0.60387925  -0.81662274  1
  F  F10  1  -0.60387925  -0.06383906  -0.81662274  1
  F  F11  1  0.06383906  -0.54004020  -0.81662274  1
  F  F12  1  0.60387925  0.54004020  -0.81662274  1
  F  F13  1  -0.06383906  -0.60387925  -0.81662274  1
  F  F14  1  -0.54004020  0.06383906  -0.81662274  1
  F  F15  1  0.60387925  0.54004020  0.81662274  1
  F  F16  1  -0.06383906  -0.60387925  0.81662274  1
  F  F17  1  -0.54004020  0.06383906  0.81662274  1
  F  F18  1  0.38498321  0.44456913  0.10070184  1
  F  F19  1  0.55543087  0.94041409  0.10070184  1
  F  F20  1  0.05958591  0.61501679  0.10070184  1
  F  F21  1  0.38498321  0.44456913  0.89929816  1
  F  F22  1  0.55543087  0.94041409  0.89929816  1
  F  F23  1  0.05958591  0.61501679  0.89929816  1
  F  F24  1  0.44456913  0.38498321  0.89929816  1
  F  F25  1  0.94041409  0.55543087  0.89929816  1
  F  F26  1  0.61501679  0.05958591  0.89929816  1
  F  F27  1  0.44456913  0.38498321  0.10070184  1
  F  F28  1  0.94041409  0.55543087  0.10070184  1
  F  F29  1  0.61501679  0.05958591  0.10070184  1
  F  F30  1  0.33333333  0.66666667  0.00000000  1
  F  F31  1  0.66666667  0.33333333  0.00000000  1
  F  F32  1  0.75646960  -0.00000000  0.50000000  1
  F  F33  1  0.00000000  0.75646960  0.50000000  1
  F  F34  1  0.24353040  0.24353040  0.50000000  1
  F  F35  1  0.89733301  0.94694084  0.41093482  1
  F  F36  1  0.05305916  0.95039217  0.41093482  1
  F  F37  1  0.04960783  0.10266699  0.41093482  1
  F  F38  1  0.89733301  0.94694084  0.58906518  1
  F  F39  1  0.05305916  0.95039217  0.58906518  1
  F  F40  1  0.04960783  0.10266699  0.58906518  1
  F  F41  1  0.94694084  0.89733301  0.58906518  1
  F  F42  1  0.95039217  0.05305916  0.58906518  1
  F  F43  1  0.10266699  0.04960783  0.58906518  1
  F  F44  1  0.94694084  0.89733301  0.41093482  1
  F  F45  1  0.95039217  0.05305916  0.41093482  1
  F  F46  1  0.10266699  0.04960783  0.41093482  1
  F  F47  1  0.00000000  0.00000000  0.00000000  1
  Li  Li48  1  0.27203688  0.07253454  0.50000000  1
  Li  Li49  1  0.92746546  0.19950234  0.50000000  1
  Li  Li50  1  0.80049766  0.72796312  0.50000000  1
  Li  Li51  1  0.07253454  0.27203688  0.50000000  1
  Li  Li52  1  0.19950234  0.92746546  0.50000000  1
  Li  Li53  1  0.72796312  0.80049766  0.50000000  1
  Li  Li54  1  0.07822492  0.94318871  0.74810368  1
  Li  Li55  1  0.05681129  0.13503621  0.74810368  1
  Li  Li56  1  0.86496379  0.92177508  0.74810368  1
  Li  Li57  1  0.07822492  0.94318871  0.25189632  1
  Li  Li58  1  0.05681129  0.13503621  0.25189632  1
  Li  Li59  1  0.86496379  0.92177508  0.25189632  1
  Li  Li60  1  0.94318871  0.07822492  0.25189632  1
  Li  Li61  1  0.13503621  0.05681129  0.25189632  1
  Li  Li62  1  0.92177508  0.86496379  0.25189632  1
  Li  Li63  1  0.94318871  0.07822492  0.74810368  1
  Li  Li64  1  0.13503621  0.05681129  0.74810368  1
  Li  Li65  1  0.92177508  0.86496379  0.74810368  1
  Li  Li66  1  0.83357145  0.05917673  0.24451905  1
  Li  Li67  1  0.94082327  0.77439472  0.24451905  1
  Li  Li68  1  0.22560528  0.16642855  0.24451905  1
  Li  Li69  1  0.83357145  0.05917673  0.75548095  1
  Li  Li70  1  0.94082327  0.77439472  0.75548095  1
  Li  Li71  1  0.22560528  0.16642855  0.75548095  1
  Li  Li72  1  0.05917673  0.83357145  0.75548095  1
  Li  Li73  1  0.77439472  0.94082327  0.75548095  1
  Li  Li74  1  0.16642855  0.22560528  0.75548095  1
  Li  Li75  1  0.05917673  0.83357145  0.24451905  1
  Li  Li76  1  0.77439472  0.94082327  0.24451905  1
  Li  Li77  1  0.16642855  0.22560528  0.24451905  1
  Li  Li78  1  0.08383049  0.71745280  0.76986233  1
  Li  Li79  1  0.28254720  0.36637769  0.76986233  1
  Li  Li80  1  0.63362231  0.91616951  0.76986233  1
  Li  Li81  1  0.08383049  0.71745280  0.23013767  1
  Li  Li82  1  0.28254720  0.36637769  0.23013767  1
  Li  Li83  1  0.63362231  0.91616951  0.23013767  1
  Li  Li84  1  0.71745280  0.08383049  0.23013767  1
  Li  Li85  1  0.36637769  0.28254720  0.23013767  1
  Li  Li86  1  0.91616951  0.63362231  0.23013767  1
  Li  Li87  1  0.71745280  0.08383049  0.76986233  1
  Li  Li88  1  0.36637769  0.28254720  0.76986233  1
  Li  Li89  1  0.91616951  0.63362231  0.76986233  1
  Li  Li90  1  0.60495984  0.87378196  0.67333363  1
  Li  Li91  1  0.12621804  0.73117789  0.67333363  1
  Li  Li92  1  0.26882211  0.39504016  0.67333363  1
  Li  Li93  1  0.60495984  0.87378196  0.32666637  1
  Li  Li94  1  0.12621804  0.73117789  0.32666637  1
  Li  Li95  1  0.26882211  0.39504016  0.32666637  1
  Li  Li96  1  0.87378196  0.60495984  0.32666637  1
  Li  Li97  1  0.73117789  0.12621804  0.32666637  1
  Li  Li98  1  0.39504016  0.26882211  0.32666637  1
  Li  Li99  1  0.87378196  0.60495984  0.67333363  1
  Li  Li100  1  0.73117789  0.12621804  0.67333363  1
  Li  Li101  1  0.39504016  0.26882211  0.67333363  1
  Li  Li102  1  0.61188512  0.53160650  0.53807460  1
  Li  Li103  1  0.46839350  0.08027861  0.53807460  1
  Li  Li104  1  0.91972139  0.38811488  0.53807460  1
  Li  Li105  1  0.61188512  0.53160650  0.46192540  1
  Li  Li106  1  0.46839350  0.08027861  0.46192540  1
  Li  Li107  1  0.91972139  0.38811488  0.46192540  1
  Li  Li108  1  0.53160650  0.61188512  0.46192540  1
  Li  Li109  1  0.08027861  0.46839350  0.46192540  1
  Li  Li110  1  0.38811488  0.91972139  0.46192540  1
  Li  Li111  1  0.53160650  0.61188512  0.53807460  1
  Li  Li112  1  0.08027861  0.46839350  0.53807460  1
  Li  Li113  1  0.38811488  0.91972139  0.53807460  1
  Li  Li114  1  0.82666892  -0.00000000  0.50000000  1
  Li  Li115  1  0.00000000  0.82666892  0.50000000  1
  Li  Li116  1  0.17333108  0.17333108  0.50000000  1
  Li  Li117  1  0.75042521  0.66338908  0.57614579  1
  Li  Li118  1  0.33661092  0.08703613  0.57614579  1
  Li  Li119  1  0.91296387  0.24957479  0.57614579  1
  Li  Li120  1  0.75042521  0.66338908  0.42385421  1
  Li  Li121  1  0.33661092  0.08703613  0.42385421  1
  Li  Li122  1  0.91296387  0.24957479  0.42385421  1
  Li  Li123  1  0.66338908  0.75042521  0.42385421  1
  Li  Li124  1  0.08703613  0.33661092  0.42385421  1
  Li  Li125  1  0.24957479  0.91296387  0.42385421  1
  Li  Li126  1  0.66338908  0.75042521  0.57614579  1
  Li  Li127  1  0.08703613  0.33661092  0.57614579  1
  Li  Li128  1  0.24957479  0.91296387  0.57614579  1
  Li  Li129  1  0.74011576  0.82198100  0.73877821  1
  Li  Li130  1  0.17801900  0.91813477  0.73877821  1
  Li  Li131  1  0.08186523  0.25988424  0.73877821  1
  Li  Li132  1  0.74011576  0.82198100  0.26122179  1
  Li  Li133  1  0.17801900  0.91813477  0.26122179  1
  Li  Li134  1  0.08186523  0.25988424  0.26122179  1
  Li  Li135  1  0.82198100  0.74011576  0.26122179  1
  Li  Li136  1  0.91813477  0.17801900  0.26122179  1
  Li  Li137  1  0.25988424  0.08186523  0.26122179  1
  Li  Li138  1  0.82198100  0.74011576  0.73877821  1
  Li  Li139  1  0.91813477  0.17801900  0.73877821  1
  Li  Li140  1  0.25988424  0.08186523  0.73877821  1
  Li  Li141  1  0.65003802  0.00000000  0.00000000  1
  Li  Li142  1  0.00000000  0.65003802  0.00000000  1
  Li  Li143  1  0.34996198  0.34996198  0.00000000  1
  Te  Te144  1  0.61654249  0.00000000  0.50000000  1
  Te  Te145  1  0.00000000  0.61654249  0.50000000  1
  Te  Te146  1  0.38345751  0.38345751  0.50000000  1
  Te  Te147  1  0.67307457  0.43279206  0.42157630  1
  Te  Te148  1  0.56720794  0.24028251  0.42157630  1
  Te  Te149  1  0.75971749  0.32692543  0.42157630  1
  Te  Te150  1  0.67307457  0.43279206  0.57842370  1
  Te  Te151  1  0.56720794  0.24028251  0.57842370  1
  Te  Te152  1  0.75971749  0.32692543  0.57842370  1
  Te  Te153  1  0.43279206  0.67307457  0.57842370  1
  Te  Te154  1  0.24028251  0.56720794  0.57842370  1
  Te  Te155  1  0.32692543  0.75971749  0.57842370  1
  Te  Te156  1  0.43279206  0.67307457  0.42157630  1
  Te  Te157  1  0.24028251  0.56720794  0.42157630  1
  Te  Te158  1  0.32692543  0.75971749  0.42157630  1
  Te  Te159  1  0.80509047  0.93799823  0.00000000  1
  Te  Te160  1  0.06200177  0.86709224  -0.00000000  1
  Te  Te161  1  0.13290776  0.19490953  0.00000000  1
  Te  Te162  1  0.93799823  0.80509047  0.00000000  1
  Te  Te163  1  0.86709224  0.06200177  0.00000000  1
  Te  Te164  1  0.19490953  0.13290776  -0.00000000  1
  Te  Te165  1  0.00000000  0.00000000  0.78173323  1
  Te  Te166  1  0.00000000  0.00000000  0.21826677  1
  Te  Te167  1  0.00000000  0.00000000  0.50000000  1
