# generated using pymatgen
data_Li2Te4MoP3Se
_symmetry_space_group_name_H-M   'P 1'
_cell_length_a   5.57199008
_cell_length_b   5.93290428
_cell_length_c   7.04096155
_cell_angle_alpha   92.94247572
_cell_angle_beta   96.95559952
_cell_angle_gamma   102.47982939
_symmetry_Int_Tables_number   1
_chemical_formula_structural   Li2Te4MoP3Se
_chemical_formula_sum   'Li2 Te4 Mo1 P3 Se1'
_cell_volume   224.86604857
_cell_formula_units_Z   1
loop_
 _symmetry_equiv_pos_site_id
 _symmetry_equiv_pos_as_xyz
  1  'x, y, z'
loop_
 _atom_site_type_symbol
 _atom_site_label
 _atom_site_symmetry_multiplicity
 _atom_site_fract_x
 _atom_site_fract_y
 _atom_site_fract_z
 _atom_site_occupancy
  Se  Se0  1  0.00000000  0.00000000  0.00000000  1
  Te  Te1  1  0.50000000  0.50000000  0.50000000  1
  Te  Te2  1  0.50000000  0.50000000  0.00000000  1
  Te  Te3  1  0.50000000  0.00000000  0.50000000  1
  Te  Te4  1  0.00000000  0.50000000  0.50000000  1
  P  P5  1  0.77212516  0.20776927  0.62397461  1
  P  P6  1  0.08045930  0.21302229  0.63198545  1
  P  P7  1  0.28472302  0.56037800  0.31791109  1
  Mo  Mo8  1  0.18001456  0.23770712  0.94410754  1
  Li  Li9  1  0.43196210  0.45173238  0.25124586  1
  Li  Li10  1  0.47854712  0.46628281  0.69898236  1
