# generated using pymatgen
data_LiF
_symmetry_space_group_name_H-M   'P 1'
_cell_length_a   4.54608786
_cell_length_b   4.54608786
_cell_length_c   24.92416181
_cell_angle_alpha   90.00000000
_cell_angle_beta   90.00000000
_cell_angle_gamma   120.00000000
_symmetry_Int_Tables_number   1
_chemical_formula_structural   LiF
_chemical_formula_sum   'Li12 F12'
_cell_volume   446.09447432
_cell_formula_units_Z   12
loop_
 _symmetry_equiv_pos_site_id
 _symmetry_equiv_pos_as_xyz
  1  'x, y, z'
loop_
 _atom_site_type_symbol
 _atom_site_label
 _atom_site_symmetry_multiplicity
 _atom_site_fract_x
 _atom_site_fract_y
 _atom_site_fract_z
 _atom_site_occupancy
  F  F0  1  0.66666667  0.33333333  0.83944520  1
  F  F1  1  0.66666667  0.33333333  0.16055480  1
  F  F2  1  0.00000000  0.00000000  0.00000000  1
  F  F3  1  0.35304296  0.22762811  0.12275709  1
  F  F4  1  0.77237189  0.12541485  0.12275709  1
  F  F5  1  0.87458515  0.64695704  0.12275709  1
  F  F6  1  0.77237189  0.64695704  0.87724291  1
  F  F7  1  0.87458515  0.22762811  0.87724291  1
  F  F8  1  0.35304296  0.12541485  0.87724291  1
  F  F9  1  0.00000000  0.00000000  0.50000000  1
  F  F10  1  0.66666667  0.33333333  0.11606535  1
  F  F11  1  0.66666667  0.33333333  0.88393465  1
  Li  Li12  1  0.43830676  0.85531630  0.73999268  1
  Li  Li13  1  -0.85531630  -0.41700954  0.73999268  1
  Li  Li14  1  0.41700954  -0.43830676  0.73999268  1
  Li  Li15  1  -0.85531630  -0.43830676  -0.73999268  1
  Li  Li16  1  0.41700954  0.85531630  -0.73999268  1
  Li  Li17  1  0.43830676  -0.41700954  -0.73999268  1
  Li  Li18  1  0.31388494  0.05412240  0.93747361  1
  Li  Li19  1  0.94587760  0.25976254  0.93747361  1
  Li  Li20  1  0.74023746  0.68611506  0.93747361  1
  Li  Li21  1  0.94587760  0.68611506  0.06252639  1
  Li  Li22  1  0.74023746  0.05412240  0.06252639  1
  Li  Li23  1  0.31388494  0.25976254  0.06252639  1
