# generated using pymatgen
data_Li2Ca3F8
_symmetry_space_group_name_H-M   'P 1'
_cell_length_a   10.38937124
_cell_length_b   10.38937124
_cell_length_c   23.72063232
_cell_angle_alpha   90.00000000
_cell_angle_beta   90.00000000
_cell_angle_gamma   120.00000000
_symmetry_Int_Tables_number   1
_chemical_formula_structural   Li2Ca3F8
_chemical_formula_sum   'Li16 Ca24 F64'
_cell_volume   2217.35599087
_cell_formula_units_Z   8
loop_
 _symmetry_equiv_pos_site_id
 _symmetry_equiv_pos_as_xyz
  1  'x, y, z'
loop_
 _atom_site_type_symbol
 _atom_site_label
 _atom_site_symmetry_multiplicity
 _atom_site_fract_x
 _atom_site_fract_y
 _atom_site_fract_z
 _atom_site_occupancy
  Ca  Ca0  1  0.39507480  0.00000000  0.83123577  1
  Ca  Ca1  1  0.00000000  0.39507480  0.83123577  1
  Ca  Ca2  1  0.60492520  0.60492520  0.83123577  1
  Ca  Ca3  1  0.39507480  0.00000000  0.16876423  1
  Ca  Ca4  1  0.00000000  0.39507480  0.16876423  1
  Ca  Ca5  1  0.60492520  0.60492520  0.16876423  1
  Ca  Ca6  1  0.44829047  0.00000000  0.43314491  1
  Ca  Ca7  1  0.00000000  0.44829047  0.43314491  1
  Ca  Ca8  1  0.55170953  0.55170953  0.43314491  1
  Ca  Ca9  1  0.44829047  0.00000000  0.56685509  1
  Ca  Ca10  1  0.00000000  0.44829047  0.56685509  1
  Ca  Ca11  1  0.55170953  0.55170953  0.56685509  1
  Ca  Ca12  1  0.74168350  0.00000000  0.05083254  1
  Ca  Ca13  1  0.00000000  0.74168350  0.05083254  1
  Ca  Ca14  1  0.25831650  0.25831650  0.05083254  1
  Ca  Ca15  1  0.74168350  0.00000000  0.94916746  1
  Ca  Ca16  1  0.00000000  0.74168350  0.94916746  1
  Ca  Ca17  1  0.25831650  0.25831650  0.94916746  1
  Ca  Ca18  1  0.33333333  0.66666667  0.50000000  1
  Ca  Ca19  1  0.66666667  0.33333333  0.50000000  1
  Ca  Ca20  1  0.33333333  0.66666667  0.35705527  1
  Ca  Ca21  1  0.33333333  0.66666667  0.64294473  1
  Ca  Ca22  1  0.66666667  0.33333333  0.64294473  1
  Ca  Ca23  1  0.66666667  0.33333333  0.35705527  1
  F  F24  1  0.54854379  0.05759053  -0.00000000  1
  F  F25  1  0.94240947  0.49095326  0.00000000  1
  F  F26  1  0.50904674  0.45145621  -0.00000000  1
  F  F27  1  0.05759053  0.54854379  0.00000000  1
  F  F28  1  0.49095326  0.94240947  0.00000000  1
  F  F29  1  0.45145621  0.50904674  0.00000000  1
  F  F30  1  0.51871259  0.35759986  0.52466214  1
  F  F31  1  -0.35759986  0.16111273  0.52466214  1
  F  F32  1  -0.16111273  -0.51871259  0.52466214  1
  F  F33  1  0.51871259  0.35759986  -0.52466214  1
  F  F34  1  -0.35759986  0.16111273  -0.52466214  1
  F  F35  1  -0.16111273  -0.51871259  -0.52466214  1
  F  F36  1  0.35759986  0.51871259  -0.52466214  1
  F  F37  1  0.16111273  -0.35759986  -0.52466214  1
  F  F38  1  -0.51871259  -0.16111273  -0.52466214  1
  F  F39  1  0.35759986  0.51871259  0.52466214  1
  F  F40  1  0.16111273  -0.35759986  0.52466214  1
  F  F41  1  -0.51871259  -0.16111273  0.52466214  1
  F  F42  1  0.38940594  0.90861724  0.63788734  1
  F  F43  1  0.09138276  0.48078870  0.63788734  1
  F  F44  1  0.51921130  0.61059406  0.63788734  1
  F  F45  1  0.38940594  0.90861724  0.36211266  1
  F  F46  1  0.09138276  0.48078870  0.36211266  1
  F  F47  1  0.51921130  0.61059406  0.36211266  1
  F  F48  1  0.90861724  0.38940594  0.36211266  1
  F  F49  1  0.48078870  0.09138276  0.36211266  1
  F  F50  1  0.61059406  0.51921130  0.36211266  1
  F  F51  1  0.90861724  0.38940594  0.63788734  1
  F  F52  1  0.48078870  0.09138276  0.63788734  1
  F  F53  1  0.61059406  0.51921130  0.63788734  1
  F  F54  1  0.05344245  0.00000000  0.83089236  1
  F  F55  1  0.00000000  0.05344245  0.83089236  1
  F  F56  1  0.94655755  0.94655755  0.83089236  1
  F  F57  1  0.05344245  0.00000000  0.16910764  1
  F  F58  1  0.00000000  0.05344245  0.16910764  1
  F  F59  1  0.94655755  0.94655755  0.16910764  1
  F  F60  1  0.42044512  0.60341011  0.57567021  1
  F  F61  1  0.39658989  0.81703501  0.57567021  1
  F  F62  1  0.18296499  0.57955488  0.57567021  1
  F  F63  1  0.42044512  0.60341011  0.42432979  1
  F  F64  1  0.39658989  0.81703501  0.42432979  1
  F  F65  1  0.18296499  0.57955488  0.42432979  1
  F  F66  1  0.60341011  0.42044512  0.42432979  1
  F  F67  1  0.81703501  0.39658989  0.42432979  1
  F  F68  1  0.57955488  0.18296499  0.42432979  1
  F  F69  1  0.60341011  0.42044512  0.57567021  1
  F  F70  1  0.81703501  0.39658989  0.57567021  1
  F  F71  1  0.57955488  0.18296499  0.57567021  1
  F  F72  1  0.72626323  0.79216191  0.12825166  1
  F  F73  1  0.20783809  0.93410133  0.12825166  1
  F  F74  1  0.06589867  0.27373677  0.12825166  1
  F  F75  1  0.72626323  0.79216191  0.87174834  1
  F  F76  1  0.20783809  0.93410133  0.87174834  1
  F  F77  1  0.06589867  0.27373677  0.87174834  1
  F  F78  1  0.79216191  0.72626323  0.87174834  1
  F  F79  1  0.93410133  0.20783809  0.87174834  1
  F  F80  1  0.27373677  0.06589867  0.87174834  1
  F  F81  1  0.79216191  0.72626323  0.12825166  1
  F  F82  1  0.93410133  0.20783809  0.12825166  1
  F  F83  1  0.27373677  0.06589867  0.12825166  1
  F  F84  1  0.33333333  0.66666667  0.93524606  1
  F  F85  1  0.33333333  0.66666667  0.06475394  1
  F  F86  1  0.66666667  0.33333333  0.06475394  1
  F  F87  1  0.66666667  0.33333333  0.93524606  1
  Li  Li88  1  0.00000000  0.00000000  0.50000000  1
  Li  Li89  1  0.09444505  0.26127820  0.83034865  1
  Li  Li90  1  0.73872180  0.83316685  0.83034865  1
  Li  Li91  1  0.16683315  0.90555495  0.83034865  1
  Li  Li92  1  0.09444505  0.26127820  0.16965135  1
  Li  Li93  1  0.73872180  0.83316685  0.16965135  1
  Li  Li94  1  0.16683315  0.90555495  0.16965135  1
  Li  Li95  1  0.26127820  0.09444505  0.16965135  1
  Li  Li96  1  0.83316685  0.73872180  0.16965135  1
  Li  Li97  1  0.90555495  0.16683315  0.16965135  1
  Li  Li98  1  0.26127820  0.09444505  0.83034865  1
  Li  Li99  1  0.83316685  0.73872180  0.83034865  1
  Li  Li100  1  0.90555495  0.16683315  0.83034865  1
  Li  Li101  1  0.63375036  0.00000000  0.00000000  1
  Li  Li102  1  0.00000000  0.63375036  0.00000000  1
  Li  Li103  1  0.36624964  0.36624964  0.00000000  1
