# generated using pymatgen
data_LiF
_symmetry_space_group_name_H-M   'P 1'
_cell_length_a   13.37520351
_cell_length_b   7.82116271
_cell_length_c   17.88037071
_cell_angle_alpha   90.00000000
_cell_angle_beta   90.00000000
_cell_angle_gamma   90.00000000
_symmetry_Int_Tables_number   1
_chemical_formula_structural   LiF
_chemical_formula_sum   'Li78 F78'
_cell_volume   1870.45919409
_cell_formula_units_Z   78
loop_
 _symmetry_equiv_pos_site_id
 _symmetry_equiv_pos_as_xyz
  1  'x, y, z'
loop_
 _atom_site_type_symbol
 _atom_site_label
 _atom_site_symmetry_multiplicity
 _atom_site_fract_x
 _atom_site_fract_y
 _atom_site_fract_z
 _atom_site_occupancy
  F  F0  1  0.00795438  0.34381503  0.84253076  1
  F  F1  1  0.99204562  0.65618497  0.84253076  1
  F  F2  1  0.49204562  0.84381503  0.15746924  1
  F  F3  1  0.50795438  0.15618497  0.15746924  1
  F  F4  1  0.99204562  0.65618497  0.15746924  1
  F  F5  1  0.00795438  0.34381503  0.15746924  1
  F  F6  1  0.50795438  0.15618497  0.84253076  1
  F  F7  1  0.49204562  0.84381503  0.84253076  1
  F  F8  1  0.54964530  0.55435801  0.19203273  1
  F  F9  1  0.45035470  0.44564199  0.19203273  1
  F  F10  1  0.95035470  0.05435801  0.80796727  1
  F  F11  1  0.04964530  0.94564199  0.80796727  1
  F  F12  1  0.45035470  0.44564199  0.80796727  1
  F  F13  1  0.54964530  0.55435801  0.80796727  1
  F  F14  1  0.04964530  0.94564199  0.19203273  1
  F  F15  1  0.95035470  0.05435801  0.19203273  1
  F  F16  1  0.42989170  0.25833524  0.20844995  1
  F  F17  1  0.57010830  0.74166476  0.20844995  1
  F  F18  1  0.07010830  0.75833524  0.79155005  1
  F  F19  1  0.92989170  0.24166476  0.79155005  1
  F  F20  1  0.57010830  0.74166476  0.79155005  1
  F  F21  1  0.42989170  0.25833524  0.79155005  1
  F  F22  1  0.92989170  0.24166476  0.20844995  1
  F  F23  1  0.07010830  0.75833524  0.20844995  1
  F  F24  1  0.36309701  0.94101444  0.00000000  1
  F  F25  1  0.63690299  0.05898556  0.00000000  1
  F  F26  1  0.13690299  0.44101444  0.00000000  1
  F  F27  1  0.86309701  0.55898556  0.00000000  1
  F  F28  1  0.00000000  0.50000000  0.48180447  1
  F  F29  1  0.50000000  -0.00000000  0.51819553  1
  F  F30  1  0.00000000  0.50000000  0.51819553  1
  F  F31  1  0.50000000  -0.00000000  0.48180447  1
  F  F32  1  0.15710569  0.14029269  0.94683949  1
  F  F33  1  0.84289431  0.85970731  0.94683949  1
  F  F34  1  0.34289431  0.64029269  0.05316051  1
  F  F35  1  0.65710569  0.35970731  0.05316051  1
  F  F36  1  0.84289431  0.85970731  0.05316051  1
  F  F37  1  0.15710569  0.14029269  0.05316051  1
  F  F38  1  0.65710569  0.35970731  0.94683949  1
  F  F39  1  0.34289431  0.64029269  0.94683949  1
  F  F40  1  0.00000000  0.00000000  0.63517179  1
  F  F41  1  0.50000000  0.50000000  0.36482821  1
  F  F42  1  0.00000000  0.00000000  0.36482821  1
  F  F43  1  0.50000000  0.50000000  0.63517179  1
  F  F44  1  0.68279087  0.23315927  0.15410861  1
  F  F45  1  0.31720913  0.76684073  0.15410861  1
  F  F46  1  0.81720913  0.73315927  0.84589139  1
  F  F47  1  0.18279087  0.26684073  0.84589139  1
  F  F48  1  0.31720913  0.76684073  0.84589139  1
  F  F49  1  0.68279087  0.23315927  0.84589139  1
  F  F50  1  0.18279087  0.26684073  0.15410861  1
  F  F51  1  0.81720913  0.73315927  0.15410861  1
  F  F52  1  0.28324702  0.96126347  0.69925443  1
  F  F53  1  0.71675298  0.03873653  0.69925443  1
  F  F54  1  0.21675298  0.46126347  0.30074557  1
  F  F55  1  0.78324702  0.53873653  0.30074557  1
  F  F56  1  0.71675298  0.03873653  0.30074557  1
  F  F57  1  0.28324702  0.96126347  0.30074557  1
  F  F58  1  0.78324702  0.53873653  0.69925443  1
  F  F59  1  0.21675298  0.46126347  0.69925443  1
  F  F60  1  0.81522176  0.73781027  0.50000000  1
  F  F61  1  0.18477824  0.26218973  0.50000000  1
  F  F62  1  0.68477824  0.23781027  0.50000000  1
  F  F63  1  0.31522176  0.76218973  0.50000000  1
  F  F64  1  0.80707828  0.95232024  0.67177586  1
  F  F65  1  0.19292172  0.04767976  0.67177586  1
  F  F66  1  0.69292172  0.45232024  0.32822414  1
  F  F67  1  0.30707828  0.54767976  0.32822414  1
  F  F68  1  0.19292172  0.04767976  0.32822414  1
  F  F69  1  0.80707828  0.95232024  0.32822414  1
  F  F70  1  0.30707828  0.54767976  0.67177586  1
  F  F71  1  0.69292172  0.45232024  0.67177586  1
  F  F72  1  0.37726562  0.52098389  0.50000000  1
  F  F73  1  0.62273438  0.47901611  0.50000000  1
  F  F74  1  0.12273438  0.02098389  0.50000000  1
  F  F75  1  0.87726562  0.97901611  0.50000000  1
  F  F76  1  0.00000000  0.00000000  0.00000000  1
  F  F77  1  0.50000000  0.50000000  0.00000000  1
  Li  Li78  1  0.00000000  0.50000000  0.00000000  1
  Li  Li79  1  0.50000000  -0.00000000  0.00000000  1
  Li  Li80  1  0.90938696  0.27552323  -0.00000000  1
  Li  Li81  1  0.09061304  0.72447677  0.00000000  1
  Li  Li82  1  0.59061304  0.77552323  0.00000000  1
  Li  Li83  1  0.40938696  0.22447677  -0.00000000  1
  Li  Li84  1  0.30304589  0.63078565  0.62954749  1
  Li  Li85  1  -0.30304589  -0.63078565  0.62954749  1
  Li  Li86  1  0.19695411  1.13078565  -0.62954749  1
  Li  Li87  1  0.80304589  -0.13078565  -0.62954749  1
  Li  Li88  1  -0.30304589  -0.63078565  -0.62954749  1
  Li  Li89  1  0.30304589  0.63078565  -0.62954749  1
  Li  Li90  1  0.80304589  -0.13078565  0.62954749  1
  Li  Li91  1  0.19695411  1.13078565  0.62954749  1
  Li  Li92  1  0.00000000  0.00000000  0.57231385  1
  Li  Li93  1  0.50000000  0.50000000  0.42768615  1
  Li  Li94  1  0.00000000  0.00000000  0.42768615  1
  Li  Li95  1  0.50000000  0.50000000  0.57231385  1
  Li  Li96  1  0.56070738  0.82221537  0.85373594  1
  Li  Li97  1  0.43929262  0.17778463  0.85373594  1
  Li  Li98  1  0.93929262  0.32221537  0.14626406  1
  Li  Li99  1  0.06070738  0.67778463  0.14626406  1
  Li  Li100  1  0.43929262  0.17778463  0.14626406  1
  Li  Li101  1  0.56070738  0.82221537  0.14626406  1
  Li  Li102  1  0.06070738  0.67778463  0.85373594  1
  Li  Li103  1  0.93929262  0.32221537  0.85373594  1
  Li  Li104  1  0.84782045  0.36876719  0.96068524  1
  Li  Li105  1  0.15217955  0.63123281  0.96068524  1
  Li  Li106  1  0.65217955  0.86876719  0.03931476  1
  Li  Li107  1  0.34782045  0.13123281  0.03931476  1
  Li  Li108  1  0.15217955  0.63123281  0.03931476  1
  Li  Li109  1  0.84782045  0.36876719  0.03931476  1
  Li  Li110  1  0.34782045  0.13123281  0.96068524  1
  Li  Li111  1  0.65217955  0.86876719  0.96068524  1
  Li  Li112  1  0.78614820  0.50846683  0.62722167  1
  Li  Li113  1  0.21385180  0.49153317  0.62722167  1
  Li  Li114  1  0.71385180  0.00846683  0.37277833  1
  Li  Li115  1  0.28614820  0.99153317  0.37277833  1
  Li  Li116  1  0.21385180  0.49153317  0.37277833  1
  Li  Li117  1  0.78614820  0.50846683  0.37277833  1
  Li  Li118  1  0.28614820  0.99153317  0.62722167  1
  Li  Li119  1  0.71385180  0.00846683  0.62722167  1
  Li  Li120  1  0.09942685  0.39989454  0.62897815  1
  Li  Li121  1  0.90057315  0.60010546  0.62897815  1
  Li  Li122  1  0.40057315  0.89989454  0.37102185  1
  Li  Li123  1  0.59942685  0.10010546  0.37102185  1
  Li  Li124  1  0.90057315  0.60010546  0.37102185  1
  Li  Li125  1  0.09942685  0.39989454  0.37102185  1
  Li  Li126  1  0.59942685  0.10010546  0.62897815  1
  Li  Li127  1  0.40057315  0.89989454  0.62897815  1
  Li  Li128  1  0.07078219  0.33572389  0.22730545  1
  Li  Li129  1  0.92921781  0.66427611  0.22730545  1
  Li  Li130  1  0.42921781  0.83572389  0.77269455  1
  Li  Li131  1  0.57078219  0.16427611  0.77269455  1
  Li  Li132  1  0.92921781  0.66427611  0.77269455  1
  Li  Li133  1  0.07078219  0.33572389  0.77269455  1
  Li  Li134  1  0.57078219  0.16427611  0.22730545  1
  Li  Li135  1  0.42921781  0.83572389  0.22730545  1
  Li  Li136  1  0.29894143  0.33560648  0.32456865  1
  Li  Li137  1  0.70105857  0.66439352  0.32456865  1
  Li  Li138  1  0.20105857  0.83560648  0.67543135  1
  Li  Li139  1  0.79894143  0.16439352  0.67543135  1
  Li  Li140  1  0.70105857  0.66439352  0.67543135  1
  Li  Li141  1  0.29894143  0.33560648  0.67543135  1
  Li  Li142  1  0.79894143  0.16439352  0.32456865  1
  Li  Li143  1  0.20105857  0.83560648  0.32456865  1
  Li  Li144  1  0.37104146  0.14187518  0.74745801  1
  Li  Li145  1  0.62895854  0.85812482  0.74745801  1
  Li  Li146  1  0.12895854  0.64187518  0.25254199  1
  Li  Li147  1  0.87104146  0.35812482  0.25254199  1
  Li  Li148  1  0.62895854  0.85812482  0.25254199  1
  Li  Li149  1  0.37104146  0.14187518  0.25254199  1
  Li  Li150  1  0.87104146  0.35812482  0.74745801  1
  Li  Li151  1  0.12895854  0.64187518  0.74745801  1
  Li  Li152  1  0.41289034  0.71965969  0.50000000  1
  Li  Li153  1  0.58710966  0.28034031  0.50000000  1
  Li  Li154  1  0.08710966  0.21965969  0.50000000  1
  Li  Li155  1  0.91289034  0.78034031  0.50000000  1
