# generated using pymatgen
data_Li2YTe4MoP3
_symmetry_space_group_name_H-M   'P 1'
_cell_length_a   5.43537810
_cell_length_b   5.49354198
_cell_length_c   7.52003699
_cell_angle_alpha   95.34275397
_cell_angle_beta   101.63540741
_cell_angle_gamma   111.45971926
_symmetry_Int_Tables_number   1
_chemical_formula_structural   Li2YTe4MoP3
_chemical_formula_sum   'Li2 Y1 Te4 Mo1 P3'
_cell_volume   201.22344691
_cell_formula_units_Z   1
loop_
 _symmetry_equiv_pos_site_id
 _symmetry_equiv_pos_as_xyz
  1  'x, y, z'
loop_
 _atom_site_type_symbol
 _atom_site_label
 _atom_site_symmetry_multiplicity
 _atom_site_fract_x
 _atom_site_fract_y
 _atom_site_fract_z
 _atom_site_occupancy
  Te  Te0  1  0.12500000  0.00000000  0.25000000  1
  Te  Te1  1  0.00000000  0.00000000  0.00000000  1
  Te  Te2  1  0.37500000  0.00000000  0.25000000  1
  Te  Te3  1  0.25000000  0.25000000  0.25000000  1
  P  P4  1  0.00000000  0.25000000  0.12500000  1
  P  P5  1  0.51611161  0.03704206  0.11112036  1
  P  P6  1  0.21804673  0.60986780  0.02586511  1
  Mo  Mo7  1  0.22170381  0.25188359  0.42314307  1
  Li  Li8  1  0.37377915  0.83961557  0.87233569  1
  Li  Li9  1  0.49865318  0.53598528  0.88003594  1
  Y  Y10  1  0.69172669  0.05274505  0.38091850  1
