# generated using pymatgen
data_Li2Y2Sb2P3
_symmetry_space_group_name_H-M   'P 1'
_cell_length_a   4.01737244
_cell_length_b   4.20757091
_cell_length_c   6.75926049
_cell_angle_alpha   96.46913637
_cell_angle_beta   104.08843410
_cell_angle_gamma   115.98394968
_symmetry_Int_Tables_number   1
_chemical_formula_structural   Li2Y2Sb2P3
_chemical_formula_sum   'Li2 Y2 Sb2 P3'
_cell_volume   96.41287104
_cell_formula_units_Z   1
loop_
 _symmetry_equiv_pos_site_id
 _symmetry_equiv_pos_as_xyz
  1  'x, y, z'
loop_
 _atom_site_type_symbol
 _atom_site_label
 _atom_site_symmetry_multiplicity
 _atom_site_fract_x
 _atom_site_fract_y
 _atom_site_fract_z
 _atom_site_occupancy
  P  P0  1  0.12500000  0.12500000  0.12500000  1
  P  P1  1  0.50000000  0.50000000  0.50000000  1
  P  P2  1  0.25000000  0.25000000  0.25000000  1
  Li  Li3  1  0.75000000  0.75000000  0.75000000  1
  Li  Li4  1  0.43116523  0.00356488  0.54744200  1
  Y  Y5  1  0.02439380  0.82827444  0.94132222  1
  Y  Y6  1  0.07852048  0.40765144  0.65200912  1
  Sb  Sb7  1  0.22839890  0.64794554  0.22762047  1
  Sb  Sb8  1  0.71768308  0.77833347  0.33412426  1
