# generated using pymatgen
data_LiCaF3
_symmetry_space_group_name_H-M   'P 1'
_cell_length_a   14.82574128
_cell_length_b   14.82574128
_cell_length_c   8.34924517
_cell_angle_alpha   90.00000000
_cell_angle_beta   90.00000000
_cell_angle_gamma   120.00000000
_symmetry_Int_Tables_number   1
_chemical_formula_structural   LiCaF3
_chemical_formula_sum   'Li18 Ca18 F54'
_cell_volume   1589.31755481
_cell_formula_units_Z   18
loop_
 _symmetry_equiv_pos_site_id
 _symmetry_equiv_pos_as_xyz
  1  'x, y, z'
loop_
 _atom_site_type_symbol
 _atom_site_label
 _atom_site_symmetry_multiplicity
 _atom_site_fract_x
 _atom_site_fract_y
 _atom_site_fract_z
 _atom_site_occupancy
  Ca  Ca0  1  0.34583330  0.50669675  0.37225361  1
  Ca  Ca1  1  -0.50669675  -0.16086345  0.37225361  1
  Ca  Ca2  1  0.16086345  -0.34583330  0.37225361  1
  Ca  Ca3  1  0.34583330  0.50669675  -0.37225361  1
  Ca  Ca4  1  -0.50669675  -0.16086345  -0.37225361  1
  Ca  Ca5  1  0.16086345  -0.34583330  -0.37225361  1
  Ca  Ca6  1  0.50669675  0.34583330  -0.37225361  1
  Ca  Ca7  1  -0.16086345  -0.50669675  -0.37225361  1
  Ca  Ca8  1  -0.34583330  0.16086345  -0.37225361  1
  Ca  Ca9  1  0.50669675  0.34583330  0.37225361  1
  Ca  Ca10  1  -0.16086345  -0.50669675  0.37225361  1
  Ca  Ca11  1  -0.34583330  0.16086345  0.37225361  1
  Ca  Ca12  1  0.77170868  0.00000000  0.50000000  1
  Ca  Ca13  1  0.00000000  0.77170868  0.50000000  1
  Ca  Ca14  1  0.22829132  0.22829132  0.50000000  1
  Ca  Ca15  1  0.00000000  0.00000000  0.50000000  1
  Ca  Ca16  1  0.33333333  0.66666667  0.50000000  1
  Ca  Ca17  1  0.66666667  0.33333333  0.50000000  1
  F  F18  1  0.30380624  0.97004842  0.84355882  1
  F  F19  1  0.02995158  0.33375782  0.84355882  1
  F  F20  1  0.66624218  0.69619376  0.84355882  1
  F  F21  1  0.30380624  0.97004842  0.15644118  1
  F  F22  1  0.02995158  0.33375782  0.15644118  1
  F  F23  1  0.66624218  0.69619376  0.15644118  1
  F  F24  1  0.97004842  0.30380624  0.15644118  1
  F  F25  1  0.33375782  0.02995158  0.15644118  1
  F  F26  1  0.69619376  0.66624218  0.15644118  1
  F  F27  1  0.97004842  0.30380624  0.84355882  1
  F  F28  1  0.33375782  0.02995158  0.84355882  1
  F  F29  1  0.69619376  0.66624218  0.84355882  1
  F  F30  1  0.33333333  0.66666667  0.79994494  1
  F  F31  1  0.33333333  0.66666667  0.20005506  1
  F  F32  1  0.66666667  0.33333333  0.20005506  1
  F  F33  1  0.66666667  0.33333333  0.79994494  1
  F  F34  1  0.30615159  0.59761168  0.33136006  1
  F  F35  1  0.40238832  0.70853991  0.33136006  1
  F  F36  1  0.29146009  0.69384841  0.33136006  1
  F  F37  1  0.30615159  0.59761168  0.66863994  1
  F  F38  1  0.40238832  0.70853991  0.66863994  1
  F  F39  1  0.29146009  0.69384841  0.66863994  1
  F  F40  1  0.59761168  0.30615159  0.66863994  1
  F  F41  1  0.70853991  0.40238832  0.66863994  1
  F  F42  1  0.69384841  0.29146009  0.66863994  1
  F  F43  1  0.59761168  0.30615159  0.33136006  1
  F  F44  1  0.70853991  0.40238832  0.33136006  1
  F  F45  1  0.69384841  0.29146009  0.33136006  1
  F  F46  1  0.00000000  0.00000000  0.88274756  1
  F  F47  1  0.00000000  0.00000000  0.11725244  1
  F  F48  1  0.08599581  0.00000000  0.50000000  1
  F  F49  1  0.00000000  0.08599581  0.50000000  1
  F  F50  1  0.91400419  0.91400419  0.50000000  1
  F  F51  1  0.11743374  0.41254342  0.61917095  1
  F  F52  1  0.58745658  0.70489032  0.61917095  1
  F  F53  1  0.29510968  0.88256626  0.61917095  1
  F  F54  1  0.11743374  0.41254342  0.38082905  1
  F  F55  1  0.58745658  0.70489032  0.38082905  1
  F  F56  1  0.29510968  0.88256626  0.38082905  1
  F  F57  1  0.41254342  0.11743374  0.38082905  1
  F  F58  1  0.70489032  0.58745658  0.38082905  1
  F  F59  1  0.88256626  0.29510968  0.38082905  1
  F  F60  1  0.41254342  0.11743374  0.61917095  1
  F  F61  1  0.70489032  0.58745658  0.61917095  1
  F  F62  1  0.88256626  0.29510968  0.61917095  1
  F  F63  1  0.40949612  0.00000000  0.50000000  1
  F  F64  1  0.00000000  0.40949612  0.50000000  1
  F  F65  1  0.59050388  0.59050388  0.50000000  1
  F  F66  1  0.15210655  0.39374032  0.00000000  1
  F  F67  1  0.60625968  0.75836623  0.00000000  1
  F  F68  1  0.24163377  0.84789345  0.00000000  1
  F  F69  1  0.39374032  0.15210655  0.00000000  1
  F  F70  1  0.75836623  0.60625968  0.00000000  1
  F  F71  1  0.84789345  0.24163377  0.00000000  1
  Li  Li72  1  0.62663930  0.17551609  0.86193090  1
  Li  Li73  1  0.82448391  0.45112321  0.86193090  1
  Li  Li74  1  0.54887679  0.37336070  0.86193090  1
  Li  Li75  1  0.62663930  0.17551609  0.13806910  1
  Li  Li76  1  0.82448391  0.45112321  0.13806910  1
  Li  Li77  1  0.54887679  0.37336070  0.13806910  1
  Li  Li78  1  0.17551609  0.62663930  0.13806910  1
  Li  Li79  1  0.45112321  0.82448391  0.13806910  1
  Li  Li80  1  0.37336070  0.54887679  0.13806910  1
  Li  Li81  1  0.17551609  0.62663930  0.86193090  1
  Li  Li82  1  0.45112321  0.82448391  0.86193090  1
  Li  Li83  1  0.37336070  0.54887679  0.86193090  1
  Li  Li84  1  0.24924044  0.62397165  0.00000000  1
  Li  Li85  1  0.37602835  0.62526879  0.00000000  1
  Li  Li86  1  0.37473121  0.75075956  0.00000000  1
  Li  Li87  1  0.62397165  0.24924044  0.00000000  1
  Li  Li88  1  0.62526879  0.37602835  0.00000000  1
  Li  Li89  1  0.75075956  0.37473121  0.00000000  1
