# generated using pymatgen
data_Li4TeF2
_symmetry_space_group_name_H-M   'P 1'
_cell_length_a   14.13562088
_cell_length_b   14.13562088
_cell_length_c   18.59230818
_cell_angle_alpha   90.00000000
_cell_angle_beta   90.00000000
_cell_angle_gamma   90.00000000
_symmetry_Int_Tables_number   1
_chemical_formula_structural   Li4TeF2
_chemical_formula_sum   'Li96 Te24 F48'
_cell_volume   3715.03651798
_cell_formula_units_Z   24
loop_
 _symmetry_equiv_pos_site_id
 _symmetry_equiv_pos_as_xyz
  1  'x, y, z'
loop_
 _atom_site_type_symbol
 _atom_site_label
 _atom_site_symmetry_multiplicity
 _atom_site_fract_x
 _atom_site_fract_y
 _atom_site_fract_z
 _atom_site_occupancy
  F  F0  1  0.14021514  0.14021514  0.50000000  1
  F  F1  1  0.85978486  0.85978486  0.50000000  1
  F  F2  1  0.85978486  0.14021514  0.50000000  1
  F  F3  1  0.14021514  0.85978486  0.50000000  1
  F  F4  1  0.00000000  0.50000000  0.90550608  1
  F  F5  1  0.50000000  0.00000000  0.90550608  1
  F  F6  1  0.00000000  0.50000000  0.09449392  1
  F  F7  1  0.50000000  0.00000000  0.09449392  1
  F  F8  1  0.10640252  0.50000000  0.50000000  1
  F  F9  1  0.89359748  0.50000000  0.50000000  1
  F  F10  1  0.50000000  0.10640252  0.50000000  1
  F  F11  1  0.50000000  0.89359748  0.50000000  1
  F  F12  1  0.53246717  0.50000000  0.47273011  1
  F  F13  1  0.46753283  0.50000000  0.47273011  1
  F  F14  1  0.50000000  0.53246717  0.47273011  1
  F  F15  1  0.50000000  0.46753283  0.47273011  1
  F  F16  1  0.46753283  0.50000000  0.52726989  1
  F  F17  1  0.53246717  0.50000000  0.52726989  1
  F  F18  1  0.50000000  0.53246717  0.52726989  1
  F  F19  1  0.50000000  0.46753283  0.52726989  1
  F  F20  1  0.00000000  0.50000000  0.32217604  1
  F  F21  1  0.50000000  0.00000000  0.32217604  1
  F  F22  1  0.00000000  0.50000000  0.67782396  1
  F  F23  1  0.50000000  0.00000000  0.67782396  1
  F  F24  1  0.97638688  0.09992156  0.70893763  1
  F  F25  1  -0.97638688  -0.09992156  0.70893763  1
  F  F26  1  -0.09992156  0.97638688  0.70893763  1
  F  F27  1  0.09992156  -0.97638688  0.70893763  1
  F  F28  1  -0.97638688  0.09992156  -0.70893763  1
  F  F29  1  0.97638688  -0.09992156  -0.70893763  1
  F  F30  1  0.09992156  0.97638688  -0.70893763  1
  F  F31  1  -0.09992156  -0.97638688  -0.70893763  1
  F  F32  1  -0.97638688  -0.09992156  -0.70893763  1
  F  F33  1  0.97638688  0.09992156  -0.70893763  1
  F  F34  1  0.09992156  -0.97638688  -0.70893763  1
  F  F35  1  -0.09992156  0.97638688  -0.70893763  1
  F  F36  1  0.97638688  -0.09992156  0.70893763  1
  F  F37  1  -0.97638688  0.09992156  0.70893763  1
  F  F38  1  -0.09992156  -0.97638688  0.70893763  1
  F  F39  1  0.09992156  0.97638688  0.70893763  1
  F  F40  1  0.00000000  0.00000000  0.00000000  1
  F  F41  1  0.50000000  0.50000000  0.50000000  1
  F  F42  1  0.27925726  0.27925726  -0.00000000  1
  F  F43  1  0.72074274  0.72074274  -0.00000000  1
  F  F44  1  0.72074274  0.27925726  -0.00000000  1
  F  F45  1  0.27925726  0.72074274  -0.00000000  1
  F  F46  1  0.00000000  0.00000000  0.16580918  1
  F  F47  1  0.00000000  0.00000000  0.83419082  1
  Li  Li48  1  0.78561783  0.50000000  0.18553319  1
  Li  Li49  1  0.21438217  0.50000000  0.18553319  1
  Li  Li50  1  0.50000000  0.78561783  0.18553319  1
  Li  Li51  1  0.50000000  0.21438217  0.18553319  1
  Li  Li52  1  0.21438217  0.50000000  0.81446681  1
  Li  Li53  1  0.78561783  0.50000000  0.81446681  1
  Li  Li54  1  0.50000000  0.78561783  0.81446681  1
  Li  Li55  1  0.50000000  0.21438217  0.81446681  1
  Li  Li56  1  0.50000000  0.50000000  0.63338807  1
  Li  Li57  1  0.50000000  0.50000000  0.36661193  1
  Li  Li58  1  0.84218492  0.93425278  0.82128135  1
  Li  Li59  1  0.15781508  0.06574722  0.82128135  1
  Li  Li60  1  0.06574722  0.84218492  0.82128135  1
  Li  Li61  1  0.93425278  0.15781508  0.82128135  1
  Li  Li62  1  0.15781508  0.93425278  0.17871865  1
  Li  Li63  1  0.84218492  0.06574722  0.17871865  1
  Li  Li64  1  0.93425278  0.84218492  0.17871865  1
  Li  Li65  1  0.06574722  0.15781508  0.17871865  1
  Li  Li66  1  0.15781508  0.06574722  0.17871865  1
  Li  Li67  1  0.84218492  0.93425278  0.17871865  1
  Li  Li68  1  0.93425278  0.15781508  0.17871865  1
  Li  Li69  1  0.06574722  0.84218492  0.17871865  1
  Li  Li70  1  0.84218492  0.06574722  0.82128135  1
  Li  Li71  1  0.15781508  0.93425278  0.82128135  1
  Li  Li72  1  0.06574722  0.15781508  0.82128135  1
  Li  Li73  1  0.93425278  0.84218492  0.82128135  1
  Li  Li74  1  0.20431652  0.64848524  0.66009287  1
  Li  Li75  1  0.79568348  0.35151476  0.66009287  1
  Li  Li76  1  0.35151476  0.20431652  0.66009287  1
  Li  Li77  1  0.64848524  0.79568348  0.66009287  1
  Li  Li78  1  0.79568348  0.64848524  0.33990713  1
  Li  Li79  1  0.20431652  0.35151476  0.33990713  1
  Li  Li80  1  0.64848524  0.20431652  0.33990713  1
  Li  Li81  1  0.35151476  0.79568348  0.33990713  1
  Li  Li82  1  0.79568348  0.35151476  0.33990713  1
  Li  Li83  1  0.20431652  0.64848524  0.33990713  1
  Li  Li84  1  0.64848524  0.79568348  0.33990713  1
  Li  Li85  1  0.35151476  0.20431652  0.33990713  1
  Li  Li86  1  0.20431652  0.35151476  0.66009287  1
  Li  Li87  1  0.79568348  0.64848524  0.66009287  1
  Li  Li88  1  0.35151476  0.79568348  0.66009287  1
  Li  Li89  1  0.64848524  0.20431652  0.66009287  1
  Li  Li90  1  0.30080563  0.30080563  0.94020673  1
  Li  Li91  1  0.69919437  0.69919437  0.94020673  1
  Li  Li92  1  0.69919437  0.30080563  0.94020673  1
  Li  Li93  1  0.30080563  0.69919437  0.94020673  1
  Li  Li94  1  0.69919437  0.30080563  0.05979327  1
  Li  Li95  1  0.30080563  0.69919437  0.05979327  1
  Li  Li96  1  0.30080563  0.30080563  0.05979327  1
  Li  Li97  1  0.69919437  0.69919437  0.05979327  1
  Li  Li98  1  0.59839904  0.84512265  0.50000000  1
  Li  Li99  1  0.40160096  0.15487735  0.50000000  1
  Li  Li100  1  0.15487735  0.59839904  0.50000000  1
  Li  Li101  1  0.84512265  0.40160096  0.50000000  1
  Li  Li102  1  0.40160096  0.84512265  0.50000000  1
  Li  Li103  1  0.59839904  0.15487735  0.50000000  1
  Li  Li104  1  0.84512265  0.59839904  0.50000000  1
  Li  Li105  1  0.15487735  0.40160096  0.50000000  1
  Li  Li106  1  0.60014637  0.50000000  0.00000000  1
  Li  Li107  1  0.39985363  0.50000000  -0.00000000  1
  Li  Li108  1  0.50000000  0.60014637  0.00000000  1
  Li  Li109  1  0.50000000  0.39985363  -0.00000000  1
  Li  Li110  1  0.00000000  0.50000000  -0.00000000  1
  Li  Li111  1  0.50000000  0.00000000  -0.00000000  1
  Li  Li112  1  0.55791457  0.81629776  0.31824040  1
  Li  Li113  1  0.44208543  0.18370224  0.31824040  1
  Li  Li114  1  0.18370224  0.55791457  0.31824040  1
  Li  Li115  1  0.81629776  0.44208543  0.31824040  1
  Li  Li116  1  0.44208543  0.81629776  0.68175960  1
  Li  Li117  1  0.55791457  0.18370224  0.68175960  1
  Li  Li118  1  0.81629776  0.55791457  0.68175960  1
  Li  Li119  1  0.18370224  0.44208543  0.68175960  1
  Li  Li120  1  0.44208543  0.18370224  0.68175960  1
  Li  Li121  1  0.55791457  0.81629776  0.68175960  1
  Li  Li122  1  0.81629776  0.44208543  0.68175960  1
  Li  Li123  1  0.18370224  0.55791457  0.68175960  1
  Li  Li124  1  0.55791457  0.18370224  0.31824040  1
  Li  Li125  1  0.44208543  0.81629776  0.31824040  1
  Li  Li126  1  0.18370224  0.44208543  0.31824040  1
  Li  Li127  1  0.81629776  0.55791457  0.31824040  1
  Li  Li128  1  0.60695674  0.29462400  0.85997441  1
  Li  Li129  1  0.39304326  0.70537600  0.85997441  1
  Li  Li130  1  0.70537600  0.60695674  0.85997441  1
  Li  Li131  1  0.29462400  0.39304326  0.85997441  1
  Li  Li132  1  0.39304326  0.29462400  0.14002559  1
  Li  Li133  1  0.60695674  0.70537600  0.14002559  1
  Li  Li134  1  0.29462400  0.60695674  0.14002559  1
  Li  Li135  1  0.70537600  0.39304326  0.14002559  1
  Li  Li136  1  0.39304326  0.70537600  0.14002559  1
  Li  Li137  1  0.60695674  0.29462400  0.14002559  1
  Li  Li138  1  0.29462400  0.39304326  0.14002559  1
  Li  Li139  1  0.70537600  0.60695674  0.14002559  1
  Li  Li140  1  0.60695674  0.70537600  0.85997441  1
  Li  Li141  1  0.39304326  0.29462400  0.85997441  1
  Li  Li142  1  0.70537600  0.39304326  0.85997441  1
  Li  Li143  1  0.29462400  0.60695674  0.85997441  1
  Te  Te144  1  0.79887309  0.79887309  0.50000000  1
  Te  Te145  1  0.20112691  0.20112691  0.50000000  1
  Te  Te146  1  0.20112691  0.79887309  0.50000000  1
  Te  Te147  1  0.79887309  0.20112691  0.50000000  1
  Te  Te148  1  0.00000000  0.50000000  0.77904037  1
  Te  Te149  1  0.50000000  0.00000000  0.77904037  1
  Te  Te150  1  0.00000000  0.50000000  0.22095963  1
  Te  Te151  1  0.50000000  0.00000000  0.22095963  1
  Te  Te152  1  0.08537514  0.34126163  0.74213747  1
  Te  Te153  1  0.91462486  0.65873837  0.74213747  1
  Te  Te154  1  0.65873837  0.08537514  0.74213747  1
  Te  Te155  1  0.34126163  0.91462486  0.74213747  1
  Te  Te156  1  0.91462486  0.34126163  0.25786253  1
  Te  Te157  1  0.08537514  0.65873837  0.25786253  1
  Te  Te158  1  0.34126163  0.08537514  0.25786253  1
  Te  Te159  1  0.65873837  0.91462486  0.25786253  1
  Te  Te160  1  0.91462486  0.65873837  0.25786253  1
  Te  Te161  1  0.08537514  0.34126163  0.25786253  1
  Te  Te162  1  0.34126163  0.91462486  0.25786253  1
  Te  Te163  1  0.65873837  0.08537514  0.25786253  1
  Te  Te164  1  0.08537514  0.65873837  0.74213747  1
  Te  Te165  1  0.91462486  0.34126163  0.74213747  1
  Te  Te166  1  0.65873837  0.91462486  0.74213747  1
  Te  Te167  1  0.34126163  0.08537514  0.74213747  1
