# generated using pymatgen
data_LiF
_symmetry_space_group_name_H-M   'P 1'
_cell_length_a   30.26721386
_cell_length_b   30.26721386
_cell_length_c   3.51139071
_cell_angle_alpha   90.00000000
_cell_angle_beta   90.00000000
_cell_angle_gamma   120.00000000
_symmetry_Int_Tables_number   1
_chemical_formula_structural   LiF
_chemical_formula_sum   'Li108 F108'
_cell_volume   2785.83043242
_cell_formula_units_Z   108
loop_
 _symmetry_equiv_pos_site_id
 _symmetry_equiv_pos_as_xyz
  1  'x, y, z'
loop_
 _atom_site_type_symbol
 _atom_site_label
 _atom_site_symmetry_multiplicity
 _atom_site_fract_x
 _atom_site_fract_y
 _atom_site_fract_z
 _atom_site_occupancy
  F  F0  1  0.55121938  0.90802904  0.15881297  1
  F  F1  1  -0.90802904  -0.35680966  0.15881297  1
  F  F2  1  0.35680966  -0.55121938  0.15881297  1
  F  F3  1  0.90802904  0.55121938  0.34118703  1
  F  F4  1  -0.35680966  -0.90802904  0.34118703  1
  F  F5  1  -0.55121938  0.35680966  0.34118703  1
  F  F6  1  -0.55121938  -0.90802904  -0.15881297  1
  F  F7  1  0.90802904  0.35680966  -0.15881297  1
  F  F8  1  -0.35680966  0.55121938  -0.15881297  1
  F  F9  1  -0.90802904  -0.55121938  0.65881297  1
  F  F10  1  0.35680966  0.90802904  0.65881297  1
  F  F11  1  0.55121938  -0.35680966  0.65881297  1
  F  F12  1  1.21788605  1.24136237  0.49214631  1
  F  F13  1  -0.24136237  -0.02347633  0.49214631  1
  F  F14  1  1.02347633  -0.21788605  0.49214631  1
  F  F15  1  1.57469571  0.88455271  0.67452036  1
  F  F16  1  0.30985700  -0.57469571  0.67452036  1
  F  F17  1  0.11544729  0.69014300  0.67452036  1
  F  F18  1  0.11544729  -0.57469571  0.17452036  1
  F  F19  1  1.57469571  0.69014300  0.17452036  1
  F  F20  1  0.30985700  0.88455271  0.17452036  1
  F  F21  1  -0.24136237  -0.21788605  0.99214631  1
  F  F22  1  1.02347633  1.24136237  0.99214631  1
  F  F23  1  1.21788605  -0.02347633  0.99214631  1
  F  F24  1  0.88455271  1.57469571  0.82547964  1
  F  F25  1  -0.57469571  0.30985700  0.82547964  1
  F  F26  1  0.69014300  0.11544729  0.82547964  1
  F  F27  1  1.24136237  1.21788605  1.00785369  1
  F  F28  1  -0.02347633  -0.24136237  1.00785369  1
  F  F29  1  -0.21788605  1.02347633  1.00785369  1
  F  F30  1  -0.21788605  -0.24136237  0.50785369  1
  F  F31  1  1.24136237  1.02347633  0.50785369  1
  F  F32  1  -0.02347633  1.21788605  0.50785369  1
  F  F33  1  -0.57469571  0.11544729  1.32547964  1
  F  F34  1  0.69014300  1.57469571  1.32547964  1
  F  F35  1  0.88455271  0.30985700  1.32547964  1
  F  F36  1  0.13717227  0.24803741  0.88062353  1
  F  F37  1  0.75196259  0.88913486  0.88062353  1
  F  F38  1  0.11086514  0.86282773  0.88062353  1
  F  F39  1  0.24803741  0.13717227  0.61937647  1
  F  F40  1  0.88913486  0.75196259  0.61937647  1
  F  F41  1  0.86282773  0.11086514  0.61937647  1
  F  F42  1  0.86282773  0.75196259  0.11937647  1
  F  F43  1  0.24803741  0.11086514  0.11937647  1
  F  F44  1  0.88913486  0.13717227  0.11937647  1
  F  F45  1  0.75196259  0.86282773  0.38062353  1
  F  F46  1  0.11086514  0.24803741  0.38062353  1
  F  F47  1  0.13717227  0.88913486  0.38062353  1
  F  F48  1  0.80383894  0.58137074  0.21395686  1
  F  F49  1  0.41862926  0.22246819  0.21395686  1
  F  F50  1  0.77753181  0.19616106  0.21395686  1
  F  F51  1  0.91470408  0.47050560  0.95270980  1
  F  F52  1  0.55580153  0.08529592  0.95270980  1
  F  F53  1  0.52949440  0.44419847  0.95270980  1
  F  F54  1  0.52949440  0.08529592  0.45270980  1
  F  F55  1  0.91470408  0.44419847  0.45270980  1
  F  F56  1  0.55580153  0.47050560  0.45270980  1
  F  F57  1  0.41862926  0.19616106  0.71395686  1
  F  F58  1  0.77753181  0.58137074  0.71395686  1
  F  F59  1  0.80383894  0.22246819  0.71395686  1
  F  F60  1  0.47050560  0.91470408  0.54729020  1
  F  F61  1  0.08529592  0.55580153  0.54729020  1
  F  F62  1  0.44419847  0.52949440  0.54729020  1
  F  F63  1  0.58137074  0.80383894  0.28604314  1
  F  F64  1  0.22246819  0.41862926  0.28604314  1
  F  F65  1  0.19616106  0.77753181  0.28604314  1
  F  F66  1  0.19616106  0.41862926  0.78604314  1
  F  F67  1  0.58137074  0.77753181  0.78604314  1
  F  F68  1  0.22246819  0.80383894  0.78604314  1
  F  F69  1  0.08529592  0.52949440  0.04729020  1
  F  F70  1  0.44419847  0.91470408  0.04729020  1
  F  F71  1  0.47050560  0.55580153  0.04729020  1
  F  F72  1  0.00000000  0.00000000  0.00000000  1
  F  F73  1  0.00000000  0.00000000  0.50000000  1
  F  F74  1  0.66666667  0.33333333  0.33333333  1
  F  F75  1  0.66666667  0.33333333  0.83333333  1
  F  F76  1  0.33333333  0.66666667  0.66666667  1
  F  F77  1  0.33333333  0.66666667  0.16666667  1
  F  F78  1  0.50000000  0.00000000  -0.00000000  1
  F  F79  1  0.00000000  0.50000000  0.00000000  1
  F  F80  1  0.50000000  0.50000000  -0.00000000  1
  F  F81  1  0.00000000  0.50000000  0.50000000  1
  F  F82  1  0.50000000  0.00000000  0.50000000  1
  F  F83  1  0.50000000  0.50000000  0.50000000  1
  F  F84  1  0.16666667  0.33333333  0.33333333  1
  F  F85  1  0.66666667  0.83333333  0.33333333  1
  F  F86  1  0.16666667  0.83333333  0.33333333  1
  F  F87  1  0.66666667  0.83333333  0.83333333  1
  F  F88  1  0.16666667  0.33333333  0.83333333  1
  F  F89  1  0.16666667  0.83333333  0.83333333  1
  F  F90  1  0.83333333  0.66666667  0.66666667  1
  F  F91  1  0.33333333  0.16666667  0.66666667  1
  F  F92  1  0.83333333  0.16666667  0.66666667  1
  F  F93  1  0.33333333  0.16666667  0.16666667  1
  F  F94  1  0.83333333  0.66666667  0.16666667  1
  F  F95  1  0.83333333  0.16666667  0.16666667  1
  F  F96  1  0.00000000  0.00000000  0.83220802  1
  F  F97  1  0.00000000  0.00000000  0.66779198  1
  F  F98  1  0.00000000  0.00000000  0.16779198  1
  F  F99  1  0.00000000  0.00000000  0.33220802  1
  F  F100  1  0.66666667  0.33333333  0.16554135  1
  F  F101  1  0.66666667  0.33333333  0.00112531  1
  F  F102  1  0.66666667  0.33333333  0.50112531  1
  F  F103  1  0.66666667  0.33333333  0.66554135  1
  F  F104  1  0.33333333  0.66666667  0.49887469  1
  F  F105  1  0.33333333  0.66666667  0.33445865  1
  F  F106  1  0.33333333  0.66666667  0.83445865  1
  F  F107  1  0.33333333  0.66666667  0.99887469  1
  Li  Li108  1  0.24398065  0.61394798  0.38255885  1
  Li  Li109  1  0.38605202  0.63003268  0.38255885  1
  Li  Li110  1  0.36996732  0.75601935  0.38255885  1
  Li  Li111  1  0.61394798  0.24398065  0.11744115  1
  Li  Li112  1  0.63003268  0.38605202  0.11744115  1
  Li  Li113  1  0.75601935  0.36996732  0.11744115  1
  Li  Li114  1  0.75601935  0.38605202  0.61744115  1
  Li  Li115  1  0.61394798  0.36996732  0.61744115  1
  Li  Li116  1  0.63003268  0.24398065  0.61744115  1
  Li  Li117  1  0.38605202  0.75601935  0.88255885  1
  Li  Li118  1  0.36996732  0.61394798  0.88255885  1
  Li  Li119  1  0.24398065  0.63003268  0.88255885  1
  Li  Li120  1  0.91064732  0.94728131  0.71589218  1
  Li  Li121  1  0.05271869  0.96336601  0.71589218  1
  Li  Li122  1  0.03663399  0.08935268  0.71589218  1
  Li  Li123  1  0.28061464  0.57731399  0.45077449  1
  Li  Li124  1  0.29669934  0.71938536  0.45077449  1
  Li  Li125  1  0.42268601  0.70330066  0.45077449  1
  Li  Li126  1  0.42268601  0.71938536  0.95077449  1
  Li  Li127  1  0.28061464  0.70330066  0.95077449  1
  Li  Li128  1  0.29669934  0.57731399  0.95077449  1
  Li  Li129  1  0.05271869  0.08935268  0.21589218  1
  Li  Li130  1  0.03663399  0.94728131  0.21589218  1
  Li  Li131  1  0.91064732  0.96336601  0.21589218  1
  Li  Li132  1  0.57731399  0.28061464  0.04922551  1
  Li  Li133  1  0.71938536  0.29669934  0.04922551  1
  Li  Li134  1  0.70330066  0.42268601  0.04922551  1
  Li  Li135  1  0.94728131  0.91064732  0.78410782  1
  Li  Li136  1  0.96336601  0.05271869  0.78410782  1
  Li  Li137  1  0.08935268  0.03663399  0.78410782  1
  Li  Li138  1  0.08935268  0.05271869  0.28410782  1
  Li  Li139  1  0.94728131  0.03663399  0.28410782  1
  Li  Li140  1  0.96336601  0.91064732  0.28410782  1
  Li  Li141  1  0.71938536  0.42268601  0.54922551  1
  Li  Li142  1  0.70330066  0.28061464  0.54922551  1
  Li  Li143  1  0.57731399  0.29669934  0.54922551  1
  Li  Li144  1  0.77957177  0.00000000  0.25000000  1
  Li  Li145  1  0.00000000  0.77957177  0.25000000  1
  Li  Li146  1  0.22042823  0.22042823  0.25000000  1
  Li  Li147  1  0.22042823  0.00000000  0.75000000  1
  Li  Li148  1  0.00000000  0.22042823  0.75000000  1
  Li  Li149  1  0.77957177  0.77957177  0.75000000  1
  Li  Li150  1  0.44623844  0.33333333  0.58333333  1
  Li  Li151  1  0.66666667  0.11290511  0.58333333  1
  Li  Li152  1  0.88709489  0.55376156  0.58333333  1
  Li  Li153  1  0.88709489  0.33333333  0.08333333  1
  Li  Li154  1  0.66666667  0.55376156  0.08333333  1
  Li  Li155  1  0.44623844  0.11290511  0.08333333  1
  Li  Li156  1  0.11290511  0.66666667  0.91666667  1
  Li  Li157  1  0.33333333  0.44623844  0.91666667  1
  Li  Li158  1  0.55376156  0.88709489  0.91666667  1
  Li  Li159  1  0.55376156  0.66666667  0.41666667  1
  Li  Li160  1  0.33333333  0.88709489  0.41666667  1
  Li  Li161  1  0.11290511  0.44623844  0.41666667  1
  Li  Li162  1  0.97054084  0.46773013  0.57360567  1
  Li  Li163  1  0.53226987  0.50281071  0.57360567  1
  Li  Li164  1  0.49718929  0.02945916  0.57360567  1
  Li  Li165  1  0.46773013  0.97054084  0.92639433  1
  Li  Li166  1  0.50281071  0.53226987  0.92639433  1
  Li  Li167  1  0.02945916  0.49718929  0.92639433  1
  Li  Li168  1  0.02945916  0.53226987  0.42639433  1
  Li  Li169  1  0.46773013  0.49718929  0.42639433  1
  Li  Li170  1  0.50281071  0.97054084  0.42639433  1
  Li  Li171  1  0.53226987  0.02945916  0.07360567  1
  Li  Li172  1  0.49718929  0.46773013  0.07360567  1
  Li  Li173  1  0.97054084  0.50281071  0.07360567  1
  Li  Li174  1  0.63720750  0.80106346  0.90693900  1
  Li  Li175  1  0.19893654  0.83614404  0.90693900  1
  Li  Li176  1  0.16385596  0.36279250  0.90693900  1
  Li  Li177  1  0.13439679  0.30387417  0.25972766  1
  Li  Li178  1  0.16947738  0.86560321  0.25972766  1
  Li  Li179  1  0.69612583  0.83052262  0.25972766  1
  Li  Li180  1  0.69612583  0.86560321  0.75972766  1
  Li  Li181  1  0.13439679  0.83052262  0.75972766  1
  Li  Li182  1  0.16947738  0.30387417  0.75972766  1
  Li  Li183  1  0.19893654  0.36279250  0.40693900  1
  Li  Li184  1  0.16385596  0.80106346  0.40693900  1
  Li  Li185  1  0.63720750  0.83614404  0.40693900  1
  Li  Li186  1  0.30387417  0.13439679  0.24027234  1
  Li  Li187  1  0.86560321  0.16947738  0.24027234  1
  Li  Li188  1  0.83052262  0.69612583  0.24027234  1
  Li  Li189  1  0.80106346  0.63720750  0.59306100  1
  Li  Li190  1  0.83614404  0.19893654  0.59306100  1
  Li  Li191  1  0.36279250  0.16385596  0.59306100  1
  Li  Li192  1  0.36279250  0.19893654  0.09306100  1
  Li  Li193  1  0.80106346  0.16385596  0.09306100  1
  Li  Li194  1  0.83614404  0.63720750  0.09306100  1
  Li  Li195  1  0.86560321  0.69612583  0.74027234  1
  Li  Li196  1  0.83052262  0.13439679  0.74027234  1
  Li  Li197  1  0.30387417  0.16947738  0.74027234  1
  Li  Li198  1  0.83799305  0.00000000  0.25000000  1
  Li  Li199  1  0.00000000  0.83799305  0.25000000  1
  Li  Li200  1  0.16200695  0.16200695  0.25000000  1
  Li  Li201  1  0.16200695  0.00000000  0.75000000  1
  Li  Li202  1  0.00000000  0.16200695  0.75000000  1
  Li  Li203  1  0.83799305  0.83799305  0.75000000  1
  Li  Li204  1  0.50465972  0.33333333  0.58333333  1
  Li  Li205  1  0.66666667  0.17132638  0.58333333  1
  Li  Li206  1  0.82867362  0.49534028  0.58333333  1
  Li  Li207  1  0.82867362  0.33333333  0.08333333  1
  Li  Li208  1  0.66666667  0.49534028  0.08333333  1
  Li  Li209  1  0.50465972  0.17132638  0.08333333  1
  Li  Li210  1  0.17132638  0.66666667  0.91666667  1
  Li  Li211  1  0.33333333  0.50465972  0.91666667  1
  Li  Li212  1  0.49534028  0.82867362  0.91666667  1
  Li  Li213  1  0.49534028  0.66666667  0.41666667  1
  Li  Li214  1  0.33333333  0.82867362  0.41666667  1
  Li  Li215  1  0.17132638  0.50465972  0.41666667  1
