# generated using pymatgen
data_LiTiAsP2Se
_symmetry_space_group_name_H-M   'P 1'
_cell_length_a   3.58546068
_cell_length_b   3.95862307
_cell_length_c   5.90767047
_cell_angle_alpha   96.83168187
_cell_angle_beta   101.82673189
_cell_angle_gamma   108.16563561
_symmetry_Int_Tables_number   1
_chemical_formula_structural   LiTiAsP2Se
_chemical_formula_sum   'Li1 Ti1 As1 P2 Se1'
_cell_volume   76.45788711
_cell_formula_units_Z   1
loop_
 _symmetry_equiv_pos_site_id
 _symmetry_equiv_pos_as_xyz
  1  'x, y, z'
loop_
 _atom_site_type_symbol
 _atom_site_label
 _atom_site_symmetry_multiplicity
 _atom_site_fract_x
 _atom_site_fract_y
 _atom_site_fract_z
 _atom_site_occupancy
  Se  Se0  1  0.12500000  0.00000000  0.25000000  1
  P  P1  1  0.00000000  0.00000000  0.00000000  1
  P  P2  1  0.37500000  0.00000000  0.25000000  1
  Ti  Ti3  1  0.25000000  0.25000000  0.25000000  1
  Li  Li4  1  0.00000000  0.25000000  0.12500000  1
  As  As5  1  0.40398693  0.99915196  0.62661599  1
