# generated using pymatgen
data_LiCaF3
_symmetry_space_group_name_H-M   'P 1'
_cell_length_a   13.70401218
_cell_length_b   6.56801485
_cell_length_c   13.32707143
_cell_angle_alpha   90.00000000
_cell_angle_beta   90.00000000
_cell_angle_gamma   90.00000000
_symmetry_Int_Tables_number   1
_chemical_formula_structural   LiCaF3
_chemical_formula_sum   'Li18 Ca18 F54'
_cell_volume   1199.54511701
_cell_formula_units_Z   18
loop_
 _symmetry_equiv_pos_site_id
 _symmetry_equiv_pos_as_xyz
  1  'x, y, z'
loop_
 _atom_site_type_symbol
 _atom_site_label
 _atom_site_symmetry_multiplicity
 _atom_site_fract_x
 _atom_site_fract_y
 _atom_site_fract_z
 _atom_site_occupancy
  Ca  Ca0  1  0.54441717  0.14831979  0.79044423  1
  Ca  Ca1  1  -0.54441717  -0.14831979  0.79044423  1
  Ca  Ca2  1  -0.04441717  0.64831979  -0.79044423  1
  Ca  Ca3  1  1.04441717  0.35168021  -0.79044423  1
  Ca  Ca4  1  -0.54441717  -0.14831979  -0.79044423  1
  Ca  Ca5  1  0.54441717  0.14831979  -0.79044423  1
  Ca  Ca6  1  1.04441717  0.35168021  0.79044423  1
  Ca  Ca7  1  -0.04441717  0.64831979  0.79044423  1
  Ca  Ca8  1  0.74914434  0.36366481  0.83001844  1
  Ca  Ca9  1  0.25085566  0.63633519  0.83001844  1
  Ca  Ca10  1  0.75085566  0.86366481  0.16998156  1
  Ca  Ca11  1  0.24914434  0.13633519  0.16998156  1
  Ca  Ca12  1  0.25085566  0.63633519  0.16998156  1
  Ca  Ca13  1  0.74914434  0.36366481  0.16998156  1
  Ca  Ca14  1  0.24914434  0.13633519  0.83001844  1
  Ca  Ca15  1  0.75085566  0.86366481  0.83001844  1
  Ca  Ca16  1  0.00000000  0.00000000  0.00000000  1
  Ca  Ca17  1  0.50000000  0.50000000  0.00000000  1
  F  F18  1  0.05731692  0.96601887  0.71338770  1
  F  F19  1  0.94268308  0.03398113  0.71338770  1
  F  F20  1  0.44268308  0.46601887  0.28661230  1
  F  F21  1  0.55731692  0.53398113  0.28661230  1
  F  F22  1  0.94268308  0.03398113  0.28661230  1
  F  F23  1  0.05731692  0.96601887  0.28661230  1
  F  F24  1  0.55731692  0.53398113  0.71338770  1
  F  F25  1  0.44268308  0.46601887  0.71338770  1
  F  F26  1  0.99045738  0.60019269  -0.00000000  1
  F  F27  1  0.00954262  0.39980731  -0.00000000  1
  F  F28  1  0.50954262  0.10019269  -0.00000000  1
  F  F29  1  0.49045738  0.89980731  0.00000000  1
  F  F30  1  0.54381217  0.74144273  0.91101041  1
  F  F31  1  0.45618783  0.25855727  0.91101041  1
  F  F32  1  0.95618783  0.24144273  0.08898959  1
  F  F33  1  0.04381217  0.75855727  0.08898959  1
  F  F34  1  0.45618783  0.25855727  0.08898959  1
  F  F35  1  0.54381217  0.74144273  0.08898959  1
  F  F36  1  0.04381217  0.75855727  0.91101041  1
  F  F37  1  0.95618783  0.24144273  0.91101041  1
  F  F38  1  0.14144199  0.32848621  0.50000000  1
  F  F39  1  0.85855801  0.67151379  0.50000000  1
  F  F40  1  0.35855801  0.82848621  0.50000000  1
  F  F41  1  0.64144199  0.17151379  0.50000000  1
  F  F42  1  0.18525016  0.76813495  0.21256847  1
  F  F43  1  0.81474984  0.23186505  0.21256847  1
  F  F44  1  0.31474984  0.26813495  0.78743153  1
  F  F45  1  0.68525016  0.73186505  0.78743153  1
  F  F46  1  0.81474984  0.23186505  0.78743153  1
  F  F47  1  0.18525016  0.76813495  0.78743153  1
  F  F48  1  0.68525016  0.73186505  0.21256847  1
  F  F49  1  0.31474984  0.26813495  0.21256847  1
  F  F50  1  0.25706677  0.08823323  0.29178995  1
  F  F51  1  0.74293323  0.91176677  0.29178995  1
  F  F52  1  0.24293323  0.58823323  0.70821005  1
  F  F53  1  0.75706677  0.41176677  0.70821005  1
  F  F54  1  0.74293323  0.91176677  0.70821005  1
  F  F55  1  0.25706677  0.08823323  0.70821005  1
  F  F56  1  0.75706677  0.41176677  0.29178995  1
  F  F57  1  0.24293323  0.58823323  0.29178995  1
  F  F58  1  0.89894870  0.83396935  -0.00000000  1
  F  F59  1  0.10105130  0.16603065  0.00000000  1
  F  F60  1  0.60105130  0.33396935  0.00000000  1
  F  F61  1  0.39894870  0.66603065  0.00000000  1
  F  F62  1  0.00000000  0.50000000  0.50000000  1
  F  F63  1  0.50000000  0.00000000  0.50000000  1
  F  F64  1  0.35356844  0.38451642  0.40458741  1
  F  F65  1  0.64643156  0.61548358  0.40458741  1
  F  F66  1  0.14643156  0.88451642  0.59541259  1
  F  F67  1  0.85356844  0.11548358  0.59541259  1
  F  F68  1  0.64643156  0.61548358  0.59541259  1
  F  F69  1  0.35356844  0.38451642  0.59541259  1
  F  F70  1  0.85356844  0.11548358  0.40458741  1
  F  F71  1  0.14643156  0.88451642  0.40458741  1
  Li  Li72  1  0.86425993  0.63458072  0.63804234  1
  Li  Li73  1  0.13574007  0.36541928  0.63804234  1
  Li  Li74  1  0.63574007  0.13458072  0.36195766  1
  Li  Li75  1  0.36425993  0.86541928  0.36195766  1
  Li  Li76  1  0.13574007  0.36541928  0.36195766  1
  Li  Li77  1  0.86425993  0.63458072  0.36195766  1
  Li  Li78  1  0.36425993  0.86541928  0.63804234  1
  Li  Li79  1  0.63574007  0.13458072  0.63804234  1
  Li  Li80  1  0.00000000  0.00000000  0.50000000  1
  Li  Li81  1  0.50000000  0.50000000  0.50000000  1
  Li  Li82  1  0.35984143  0.99044336  0.80245112  1
  Li  Li83  1  0.64015857  0.00955664  0.80245112  1
  Li  Li84  1  0.14015857  0.49044336  0.19754888  1
  Li  Li85  1  0.85984143  0.50955664  0.19754888  1
  Li  Li86  1  0.64015857  0.00955664  0.19754888  1
  Li  Li87  1  0.35984143  0.99044336  0.19754888  1
  Li  Li88  1  0.85984143  0.50955664  0.80245112  1
  Li  Li89  1  0.14015857  0.49044336  0.80245112  1
