# generated using pymatgen
data_LiF
_symmetry_space_group_name_H-M   'P 1'
_cell_length_a   10.60095936
_cell_length_b   10.60095936
_cell_length_c   12.11878022
_cell_angle_alpha   90.00000000
_cell_angle_beta   90.00000000
_cell_angle_gamma   90.00000000
_symmetry_Int_Tables_number   1
_chemical_formula_structural   LiF
_chemical_formula_sum   'Li44 F44'
_cell_volume   1361.91263488
_cell_formula_units_Z   44
loop_
 _symmetry_equiv_pos_site_id
 _symmetry_equiv_pos_as_xyz
  1  'x, y, z'
loop_
 _atom_site_type_symbol
 _atom_site_label
 _atom_site_symmetry_multiplicity
 _atom_site_fract_x
 _atom_site_fract_y
 _atom_site_fract_z
 _atom_site_occupancy
  F  F0  1  0.81132993  0.86242194  0.15003901  1
  F  F1  1  0.18867007  0.13757806  0.15003901  1
  F  F2  1  0.13757806  0.81132993  0.15003901  1
  F  F3  1  0.86242194  0.18867007  0.15003901  1
  F  F4  1  0.18867007  0.86242194  0.84996099  1
  F  F5  1  0.81132993  0.13757806  0.84996099  1
  F  F6  1  0.86242194  0.81132993  0.84996099  1
  F  F7  1  0.13757806  0.18867007  0.84996099  1
  F  F8  1  0.18867007  0.13757806  0.84996099  1
  F  F9  1  0.81132993  0.86242194  0.84996099  1
  F  F10  1  0.86242194  0.18867007  0.84996099  1
  F  F11  1  0.13757806  0.81132993  0.84996099  1
  F  F12  1  0.81132993  0.13757806  0.15003901  1
  F  F13  1  0.18867007  0.86242194  0.15003901  1
  F  F14  1  0.13757806  0.18867007  0.15003901  1
  F  F15  1  0.86242194  0.81132993  0.15003901  1
  F  F16  1  0.36446064  0.00000000  0.80647069  1
  F  F17  1  0.63553936  0.00000000  0.80647069  1
  F  F18  1  0.00000000  0.36446064  0.80647069  1
  F  F19  1  0.00000000  0.63553936  0.80647069  1
  F  F20  1  0.63553936  0.00000000  0.19352931  1
  F  F21  1  0.36446064  0.00000000  0.19352931  1
  F  F22  1  0.00000000  0.36446064  0.19352931  1
  F  F23  1  0.00000000  0.63553936  0.19352931  1
  F  F24  1  0.52867489  0.64822602  0.71786614  1
  F  F25  1  0.47132511  0.35177398  0.71786614  1
  F  F26  1  0.35177398  0.52867489  0.71786614  1
  F  F27  1  0.64822602  0.47132511  0.71786614  1
  F  F28  1  0.47132511  0.64822602  0.28213386  1
  F  F29  1  0.52867489  0.35177398  0.28213386  1
  F  F30  1  0.64822602  0.52867489  0.28213386  1
  F  F31  1  0.35177398  0.47132511  0.28213386  1
  F  F32  1  0.47132511  0.35177398  0.28213386  1
  F  F33  1  0.52867489  0.64822602  0.28213386  1
  F  F34  1  0.64822602  0.47132511  0.28213386  1
  F  F35  1  0.35177398  0.52867489  0.28213386  1
  F  F36  1  0.52867489  0.35177398  0.71786614  1
  F  F37  1  0.47132511  0.64822602  0.71786614  1
  F  F38  1  0.35177398  0.47132511  0.71786614  1
  F  F39  1  0.64822602  0.52867489  0.71786614  1
  F  F40  1  0.76811546  0.50000000  0.00000000  1
  F  F41  1  0.23188454  0.50000000  -0.00000000  1
  F  F42  1  0.50000000  0.76811546  0.00000000  1
  F  F43  1  0.50000000  0.23188454  -0.00000000  1
  Li  Li44  1  0.17864026  0.00000000  0.50000000  1
  Li  Li45  1  0.82135974  0.00000000  0.50000000  1
  Li  Li46  1  0.00000000  0.17864026  0.50000000  1
  Li  Li47  1  0.00000000  0.82135974  0.50000000  1
  Li  Li48  1  0.81265842  0.36284134  0.61617814  1
  Li  Li49  1  -0.81265842  -0.36284134  0.61617814  1
  Li  Li50  1  -0.36284134  0.81265842  0.61617814  1
  Li  Li51  1  0.36284134  -0.81265842  0.61617814  1
  Li  Li52  1  -0.81265842  0.36284134  -0.61617814  1
  Li  Li53  1  0.81265842  -0.36284134  -0.61617814  1
  Li  Li54  1  0.36284134  0.81265842  -0.61617814  1
  Li  Li55  1  -0.36284134  -0.81265842  -0.61617814  1
  Li  Li56  1  -0.81265842  -0.36284134  -0.61617814  1
  Li  Li57  1  0.81265842  0.36284134  -0.61617814  1
  Li  Li58  1  0.36284134  -0.81265842  -0.61617814  1
  Li  Li59  1  -0.36284134  0.81265842  -0.61617814  1
  Li  Li60  1  0.81265842  -0.36284134  0.61617814  1
  Li  Li61  1  -0.81265842  0.36284134  0.61617814  1
  Li  Li62  1  -0.36284134  -0.81265842  0.61617814  1
  Li  Li63  1  0.36284134  0.81265842  0.61617814  1
  Li  Li64  1  0.50000000  0.50000000  0.00000000  1
  Li  Li65  1  0.60602369  0.50000000  0.63774269  1
  Li  Li66  1  0.39397631  0.50000000  0.63774269  1
  Li  Li67  1  0.50000000  0.60602369  0.63774269  1
  Li  Li68  1  0.50000000  0.39397631  0.63774269  1
  Li  Li69  1  0.39397631  0.50000000  0.36225731  1
  Li  Li70  1  0.60602369  0.50000000  0.36225731  1
  Li  Li71  1  0.50000000  0.60602369  0.36225731  1
  Li  Li72  1  0.50000000  0.39397631  0.36225731  1
  Li  Li73  1  0.50000000  0.50000000  0.50000000  1
  Li  Li74  1  0.00000000  0.00000000  0.87033797  1
  Li  Li75  1  0.00000000  0.00000000  0.12966203  1
  Li  Li76  1  0.71269832  0.13856384  0.50000000  1
  Li  Li77  1  0.28730168  0.86143616  0.50000000  1
  Li  Li78  1  0.86143616  0.71269832  0.50000000  1
  Li  Li79  1  0.13856384  0.28730168  0.50000000  1
  Li  Li80  1  0.28730168  0.13856384  0.50000000  1
  Li  Li81  1  0.71269832  0.86143616  0.50000000  1
  Li  Li82  1  0.13856384  0.71269832  0.50000000  1
  Li  Li83  1  0.86143616  0.28730168  0.50000000  1
  Li  Li84  1  0.56329604  0.00000000  0.00000000  1
  Li  Li85  1  0.43670396  0.00000000  0.00000000  1
  Li  Li86  1  0.00000000  0.56329604  0.00000000  1
  Li  Li87  1  0.00000000  0.43670396  -0.00000000  1
