# generated using pymatgen
data_LiF
_symmetry_space_group_name_H-M   'P 1'
_cell_length_a   15.75830722
_cell_length_b   15.75830722
_cell_length_c   12.06841941
_cell_angle_alpha   90.00000000
_cell_angle_beta   90.00000000
_cell_angle_gamma   120.00000000
_symmetry_Int_Tables_number   1
_chemical_formula_structural   LiF
_chemical_formula_sum   'Li75 F75'
_cell_volume   2595.37521205
_cell_formula_units_Z   75
loop_
 _symmetry_equiv_pos_site_id
 _symmetry_equiv_pos_as_xyz
  1  'x, y, z'
loop_
 _atom_site_type_symbol
 _atom_site_label
 _atom_site_symmetry_multiplicity
 _atom_site_fract_x
 _atom_site_fract_y
 _atom_site_fract_z
 _atom_site_occupancy
  F  F0  1  0.00000000  0.00000000  0.50000000  1
  F  F1  1  0.59068872  0.02796044  0.38111442  1
  F  F2  1  0.97203956  0.56272828  0.38111442  1
  F  F3  1  0.43727172  0.40931128  0.38111442  1
  F  F4  1  0.97203956  0.40931128  0.61888558  1
  F  F5  1  0.43727172  0.02796044  0.61888558  1
  F  F6  1  0.59068872  0.56272828  0.61888558  1
  F  F7  1  0.35954842  0.35118837  0.15334259  1
  F  F8  1  0.64881163  0.00836005  0.15334259  1
  F  F9  1  0.99163995  0.64045158  0.15334259  1
  F  F10  1  0.64881163  0.64045158  0.84665741  1
  F  F11  1  0.99163995  0.35118837  0.84665741  1
  F  F12  1  0.35954842  0.00836005  0.84665741  1
  F  F13  1  0.32683001  0.88362909  0.04899052  1
  F  F14  1  0.11637091  0.44320093  0.04899052  1
  F  F15  1  0.55679907  0.67316999  0.04899052  1
  F  F16  1  0.11637091  0.67316999  0.95100948  1
  F  F17  1  0.55679907  0.88362909  0.95100948  1
  F  F18  1  0.32683001  0.44320093  0.95100948  1
  F  F19  1  0.61272062  0.28713452  0.94608214  1
  F  F20  1  0.71286548  0.32558610  0.94608214  1
  F  F21  1  0.67441390  0.38727938  0.94608214  1
  F  F22  1  0.71286548  0.38727938  0.05391786  1
  F  F23  1  0.67441390  0.28713452  0.05391786  1
  F  F24  1  0.61272062  0.32558610  0.05391786  1
  F  F25  1  0.47949558  0.40047927  0.01857577  1
  F  F26  1  0.59952073  0.07901632  0.01857577  1
  F  F27  1  0.92098368  0.52050442  0.01857577  1
  F  F28  1  0.59952073  0.52050442  0.98142423  1
  F  F29  1  0.92098368  0.40047927  0.98142423  1
  F  F30  1  0.47949558  0.07901632  0.98142423  1
  F  F31  1  0.84831502  0.02307381  0.86972736  1
  F  F32  1  0.97692619  0.82524121  0.86972736  1
  F  F33  1  0.17475879  0.15168498  0.86972736  1
  F  F34  1  0.97692619  0.15168498  0.13027264  1
  F  F35  1  0.17475879  0.02307381  0.13027264  1
  F  F36  1  0.84831502  0.82524121  0.13027264  1
  F  F37  1  0.94690235  0.89071079  0.03308533  1
  F  F38  1  0.10928921  0.05619155  0.03308533  1
  F  F39  1  0.94380845  0.05309765  0.03308533  1
  F  F40  1  0.10928921  0.05309765  0.96691467  1
  F  F41  1  0.94380845  0.89071079  0.96691467  1
  F  F42  1  0.94690235  0.05619155  0.96691467  1
  F  F43  1  0.39106076  0.05551598  0.58652461  1
  F  F44  1  0.94448402  0.33554478  0.58652461  1
  F  F45  1  0.66445522  0.60893924  0.58652461  1
  F  F46  1  0.94448402  0.60893924  0.41347539  1
  F  F47  1  0.66445522  0.05551598  0.41347539  1
  F  F48  1  0.39106076  0.33554478  0.41347539  1
  F  F49  1  0.51655412  0.51995521  0.78160761  1
  F  F50  1  0.48004479  0.99659891  0.78160761  1
  F  F51  1  0.00340109  0.48344588  0.78160761  1
  F  F52  1  0.48004479  0.48344588  0.21839239  1
  F  F53  1  0.00340109  0.51995521  0.21839239  1
  F  F54  1  0.51655412  0.99659891  0.21839239  1
  F  F55  1  0.81719360  0.58855143  0.16878958  1
  F  F56  1  0.41144857  0.22864216  0.16878958  1
  F  F57  1  0.77135784  0.18280640  0.16878958  1
  F  F58  1  0.41144857  0.18280640  0.83121042  1
  F  F59  1  0.77135784  0.58855143  0.83121042  1
  F  F60  1  0.81719360  0.22864216  0.83121042  1
  F  F61  1  0.30089944  0.03597667  0.17890297  1
  F  F62  1  0.96402333  0.26492278  0.17890297  1
  F  F63  1  0.73507722  0.69910056  0.17890297  1
  F  F64  1  0.96402333  0.69910056  0.82109703  1
  F  F65  1  0.73507722  0.03597667  0.82109703  1
  F  F66  1  0.30089944  0.26492278  0.82109703  1
  F  F67  1  0.03781093  0.19247793  0.35804329  1
  F  F68  1  0.80752207  0.84533300  0.35804329  1
  F  F69  1  0.15466700  0.96218907  0.35804329  1
  F  F70  1  0.80752207  0.96218907  0.64195671  1
  F  F71  1  0.15466700  0.19247793  0.64195671  1
  F  F72  1  0.03781093  0.84533300  0.64195671  1
  F  F73  1  0.66666667  0.33333333  0.18153399  1
  F  F74  1  0.66666667  0.33333333  0.81846601  1
  Li  Li75  1  0.96311364  0.61164252  0.74341782  1
  Li  Li76  1  -0.61164252  0.35147112  0.74341782  1
  Li  Li77  1  -0.35147112  -0.96311364  0.74341782  1
  Li  Li78  1  -0.61164252  -0.96311364  -0.74341782  1
  Li  Li79  1  -0.35147112  0.61164252  -0.74341782  1
  Li  Li80  1  0.96311364  0.35147112  -0.74341782  1
  Li  Li81  1  0.12608114  0.12348587  0.27676742  1
  Li  Li82  1  0.87651413  0.00259527  0.27676742  1
  Li  Li83  1  0.99740473  0.87391886  0.27676742  1
  Li  Li84  1  0.87651413  0.87391886  0.72323258  1
  Li  Li85  1  0.99740473  0.12348587  0.72323258  1
  Li  Li86  1  0.12608114  0.00259527  0.72323258  1
  Li  Li87  1  0.25536498  0.18303308  0.76786553  1
  Li  Li88  1  0.81696692  0.07233189  0.76786553  1
  Li  Li89  1  0.92766811  0.74463502  0.76786553  1
  Li  Li90  1  0.81696692  0.74463502  0.23213447  1
  Li  Li91  1  0.92766811  0.18303308  0.23213447  1
  Li  Li92  1  0.25536498  0.07233189  0.23213447  1
  Li  Li93  1  0.33333333  0.66666667  0.00000000  1
  Li  Li94  1  0.66666667  0.33333333  0.00000000  1
  Li  Li95  1  0.88461188  0.11538812  0.50000000  1
  Li  Li96  1  0.88461188  0.76922376  0.50000000  1
  Li  Li97  1  0.23077624  0.11538812  0.50000000  1
  Li  Li98  1  0.34970118  0.38772347  0.08853541  1
  Li  Li99  1  0.61227653  0.96197771  0.08853541  1
  Li  Li100  1  0.03802229  0.65029882  0.08853541  1
  Li  Li101  1  0.61227653  0.65029882  0.91146459  1
  Li  Li102  1  0.03802229  0.38772347  0.91146459  1
  Li  Li103  1  0.34970118  0.96197771  0.91146459  1
  Li  Li104  1  0.15386494  0.35760911  0.32328945  1
  Li  Li105  1  0.64239089  0.79625583  0.32328945  1
  Li  Li106  1  0.20374417  0.84613506  0.32328945  1
  Li  Li107  1  0.64239089  0.84613506  0.67671055  1
  Li  Li108  1  0.20374417  0.35760911  0.67671055  1
  Li  Li109  1  0.15386494  0.79625583  0.67671055  1
  Li  Li110  1  0.00000000  0.00000000  0.00000000  1
  Li  Li111  1  0.09219893  0.90780107  0.50000000  1
  Li  Li112  1  0.09219893  0.18439786  0.50000000  1
  Li  Li113  1  0.81560214  0.90780107  0.50000000  1
  Li  Li114  1  0.52356444  0.32185584  0.69670000  1
  Li  Li115  1  0.67814416  0.20170860  0.69670000  1
  Li  Li116  1  0.79829140  0.47643556  0.69670000  1
  Li  Li117  1  0.67814416  0.47643556  0.30330000  1
  Li  Li118  1  0.79829140  0.32185584  0.30330000  1
  Li  Li119  1  0.52356444  0.20170860  0.30330000  1
  Li  Li120  1  0.98187364  0.53416874  0.89663977  1
  Li  Li121  1  0.46583126  0.44770489  0.89663977  1
  Li  Li122  1  0.55229511  0.01812636  0.89663977  1
  Li  Li123  1  0.46583126  0.01812636  0.10336023  1
  Li  Li124  1  0.55229511  0.53416874  0.10336023  1
  Li  Li125  1  0.98187364  0.44770489  0.10336023  1
  Li  Li126  1  0.46733551  0.40298642  0.12957305  1
  Li  Li127  1  0.59701358  0.06434909  0.12957305  1
  Li  Li128  1  0.93565091  0.53266449  0.12957305  1
  Li  Li129  1  0.59701358  0.53266449  0.87042695  1
  Li  Li130  1  0.93565091  0.40298642  0.87042695  1
  Li  Li131  1  0.46733551  0.06434909  0.87042695  1
  Li  Li132  1  0.96722381  0.79949241  0.18764826  1
  Li  Li133  1  0.20050759  0.16773139  0.18764826  1
  Li  Li134  1  0.83226861  0.03277619  0.18764826  1
  Li  Li135  1  0.20050759  0.03277619  0.81235174  1
  Li  Li136  1  0.83226861  0.79949241  0.81235174  1
  Li  Li137  1  0.96722381  0.16773139  0.81235174  1
  Li  Li138  1  0.00000000  0.00000000  0.79676885  1
  Li  Li139  1  0.00000000  0.00000000  0.20323115  1
  Li  Li140  1  0.62340831  0.15522112  0.60132560  1
  Li  Li141  1  0.84477888  0.46818718  0.60132560  1
  Li  Li142  1  0.53181282  0.37659169  0.60132560  1
  Li  Li143  1  0.84477888  0.37659169  0.39867440  1
  Li  Li144  1  0.53181282  0.15522112  0.39867440  1
  Li  Li145  1  0.62340831  0.46818718  0.39867440  1
  Li  Li146  1  0.33333333  0.66666667  0.50000000  1
  Li  Li147  1  0.04074103  0.95925897  0.50000000  1
  Li  Li148  1  0.04074103  0.08148205  0.50000000  1
  Li  Li149  1  0.91851795  0.95925897  0.50000000  1
