# generated using pymatgen
data_LiF
_symmetry_space_group_name_H-M   'P 1'
_cell_length_a   7.19929403
_cell_length_b   7.19929403
_cell_length_c   39.12716691
_cell_angle_alpha   90.00000000
_cell_angle_beta   90.00000000
_cell_angle_gamma   120.00000000
_symmetry_Int_Tables_number   1
_chemical_formula_structural   LiF
_chemical_formula_sum   'Li56 F56'
_cell_volume   1756.26018929
_cell_formula_units_Z   56
loop_
 _symmetry_equiv_pos_site_id
 _symmetry_equiv_pos_as_xyz
  1  'x, y, z'
loop_
 _atom_site_type_symbol
 _atom_site_label
 _atom_site_symmetry_multiplicity
 _atom_site_fract_x
 _atom_site_fract_y
 _atom_site_fract_z
 _atom_site_occupancy
  F  F0  1  0.03511893  0.73020125  0.35352641  1
  F  F1  1  0.26979875  0.30491768  0.35352641  1
  F  F2  1  0.69508232  0.96488107  0.35352641  1
  F  F3  1  0.96488107  0.26979875  0.85352641  1
  F  F4  1  0.73020125  0.69508232  0.85352641  1
  F  F5  1  0.30491768  0.03511893  0.85352641  1
  F  F6  1  0.96488107  0.26979875  0.64647359  1
  F  F7  1  0.73020125  0.69508232  0.64647359  1
  F  F8  1  0.30491768  0.03511893  0.64647359  1
  F  F9  1  0.03511893  0.73020125  0.14647359  1
  F  F10  1  0.26979875  0.30491768  0.14647359  1
  F  F11  1  0.69508232  0.96488107  0.14647359  1
  F  F12  1  0.95780220  0.48508459  0.23836178  1
  F  F13  1  0.51491541  0.47271761  0.23836178  1
  F  F14  1  0.52728239  0.04219780  0.23836178  1
  F  F15  1  0.04219780  0.51491541  0.73836178  1
  F  F16  1  0.48508459  0.52728239  0.73836178  1
  F  F17  1  0.47271761  0.95780220  0.73836178  1
  F  F18  1  0.04219780  0.51491541  0.76163822  1
  F  F19  1  0.48508459  0.52728239  0.76163822  1
  F  F20  1  0.47271761  0.95780220  0.76163822  1
  F  F21  1  0.95780220  0.48508459  0.26163822  1
  F  F22  1  0.51491541  0.47271761  0.26163822  1
  F  F23  1  0.52728239  0.04219780  0.26163822  1
  F  F24  1  0.35472611  0.95583338  0.96534254  1
  F  F25  1  0.04416662  0.39889274  0.96534254  1
  F  F26  1  0.60110726  0.64527389  0.96534254  1
  F  F27  1  0.64527389  0.04416662  0.46534254  1
  F  F28  1  0.95583338  0.60110726  0.46534254  1
  F  F29  1  0.39889274  0.35472611  0.46534254  1
  F  F30  1  0.64527389  0.04416662  0.03465746  1
  F  F31  1  0.95583338  0.60110726  0.03465746  1
  F  F32  1  0.39889274  0.35472611  0.03465746  1
  F  F33  1  0.35472611  0.95583338  0.53465746  1
  F  F34  1  0.04416662  0.39889274  0.53465746  1
  F  F35  1  0.60110726  0.64527389  0.53465746  1
  F  F36  1  0.73509966  0.41475993  0.49807712  1
  F  F37  1  0.58524007  0.32033973  0.49807712  1
  F  F38  1  0.67966027  0.26490034  0.49807712  1
  F  F39  1  0.26490034  0.58524007  0.99807712  1
  F  F40  1  0.41475993  0.67966027  0.99807712  1
  F  F41  1  0.32033973  0.73509966  0.99807712  1
  F  F42  1  0.26490034  0.58524007  0.50192288  1
  F  F43  1  0.41475993  0.67966027  0.50192288  1
  F  F44  1  0.32033973  0.73509966  0.50192288  1
  F  F45  1  0.73509966  0.41475993  0.00192288  1
  F  F46  1  0.58524007  0.32033973  0.00192288  1
  F  F47  1  0.67966027  0.26490034  0.00192288  1
  F  F48  1  0.33333333  0.66666667  0.25000000  1
  F  F49  1  0.66666667  0.33333333  0.75000000  1
  F  F50  1  0.00000000  0.00000000  0.05166918  1
  F  F51  1  0.00000000  0.00000000  0.55166918  1
  F  F52  1  0.00000000  0.00000000  0.94833082  1
  F  F53  1  0.00000000  0.00000000  0.44833082  1
  F  F54  1  0.00000000  0.00000000  0.00000000  1
  F  F55  1  0.00000000  0.00000000  0.50000000  1
  Li  Li56  1  0.50000000  0.00000000  -0.00000000  1
  Li  Li57  1  0.00000000  0.50000000  0.00000000  1
  Li  Li58  1  0.50000000  0.50000000  0.00000000  1
  Li  Li59  1  0.50000000  0.00000000  0.50000000  1
  Li  Li60  1  0.00000000  0.50000000  0.50000000  1
  Li  Li61  1  0.50000000  0.50000000  0.50000000  1
  Li  Li62  1  0.17102810  0.37086886  0.21884590  1
  Li  Li63  1  -0.37086886  -0.19984076  0.21884590  1
  Li  Li64  1  0.19984076  -0.17102810  0.21884590  1
  Li  Li65  1  -0.17102810  -0.37086886  0.71884590  1
  Li  Li66  1  0.37086886  0.19984076  0.71884590  1
  Li  Li67  1  -0.19984076  0.17102810  0.71884590  1
  Li  Li68  1  -0.17102810  -0.37086886  -0.21884590  1
  Li  Li69  1  0.37086886  0.19984076  -0.21884590  1
  Li  Li70  1  -0.19984076  0.17102810  -0.21884590  1
  Li  Li71  1  0.17102810  0.37086886  0.28115410  1
  Li  Li72  1  -0.37086886  -0.19984076  0.28115410  1
  Li  Li73  1  0.19984076  -0.17102810  0.28115410  1
  Li  Li74  1  0.37025236  0.06442937  0.05163166  1
  Li  Li75  1  0.93557063  0.30582299  0.05163166  1
  Li  Li76  1  0.69417701  0.62974764  0.05163166  1
  Li  Li77  1  0.62974764  0.93557063  0.55163166  1
  Li  Li78  1  0.06442937  0.69417701  0.55163166  1
  Li  Li79  1  0.30582299  0.37025236  0.55163166  1
  Li  Li80  1  0.62974764  0.93557063  0.94836834  1
  Li  Li81  1  0.06442937  0.69417701  0.94836834  1
  Li  Li82  1  0.30582299  0.37025236  0.94836834  1
  Li  Li83  1  0.37025236  0.06442937  0.44836834  1
  Li  Li84  1  0.93557063  0.30582299  0.44836834  1
  Li  Li85  1  0.69417701  0.62974764  0.44836834  1
  Li  Li86  1  0.77850649  0.92754452  0.48489953  1
  Li  Li87  1  0.07245548  0.85096197  0.48489953  1
  Li  Li88  1  0.14903803  0.22149351  0.48489953  1
  Li  Li89  1  0.22149351  0.07245548  0.98489953  1
  Li  Li90  1  0.92754452  0.14903803  0.98489953  1
  Li  Li91  1  0.85096197  0.77850649  0.98489953  1
  Li  Li92  1  0.22149351  0.07245548  0.51510047  1
  Li  Li93  1  0.92754452  0.14903803  0.51510047  1
  Li  Li94  1  0.85096197  0.77850649  0.51510047  1
  Li  Li95  1  0.77850649  0.92754452  0.01510047  1
  Li  Li96  1  0.07245548  0.85096197  0.01510047  1
  Li  Li97  1  0.14903803  0.22149351  0.01510047  1
  Li  Li98  1  0.00000000  0.00000000  0.20341875  1
  Li  Li99  1  0.00000000  0.00000000  0.70341875  1
  Li  Li100  1  0.00000000  0.00000000  0.79658125  1
  Li  Li101  1  0.00000000  0.00000000  0.29658125  1
  Li  Li102  1  0.66666667  0.33333333  0.25000000  1
  Li  Li103  1  0.33333333  0.66666667  0.75000000  1
  Li  Li104  1  0.00000000  0.00000000  0.25000000  1
  Li  Li105  1  0.00000000  0.00000000  0.75000000  1
  Li  Li106  1  0.98901633  0.70428527  0.25000000  1
  Li  Li107  1  0.29571473  0.28473106  0.25000000  1
  Li  Li108  1  0.71526894  0.01098367  0.25000000  1
  Li  Li109  1  0.01098367  0.29571473  0.75000000  1
  Li  Li110  1  0.70428527  0.71526894  0.75000000  1
  Li  Li111  1  0.28473106  0.98901633  0.75000000  1
