# generated using pymatgen
data_LiF
_symmetry_space_group_name_H-M   'P 1'
_cell_length_a   9.44588112
_cell_length_b   9.44588112
_cell_length_c   12.63782941
_cell_angle_alpha   90.00000000
_cell_angle_beta   90.00000000
_cell_angle_gamma   120.00000000
_symmetry_Int_Tables_number   1
_chemical_formula_structural   LiF
_chemical_formula_sum   'Li24 F24'
_cell_volume   976.53558056
_cell_formula_units_Z   24
loop_
 _symmetry_equiv_pos_site_id
 _symmetry_equiv_pos_as_xyz
  1  'x, y, z'
loop_
 _atom_site_type_symbol
 _atom_site_label
 _atom_site_symmetry_multiplicity
 _atom_site_fract_x
 _atom_site_fract_y
 _atom_site_fract_z
 _atom_site_occupancy
  F  F0  1  0.35069813  0.00000000  0.20674679  1
  F  F1  1  0.00000000  0.35069813  0.20674679  1
  F  F2  1  0.64930187  0.64930187  0.20674679  1
  F  F3  1  0.35069813  0.00000000  0.79325321  1
  F  F4  1  0.00000000  0.35069813  0.79325321  1
  F  F5  1  0.64930187  0.64930187  0.79325321  1
  F  F6  1  0.33333333  0.66666667  -0.00000000  1
  F  F7  1  0.66666667  0.33333333  -0.00000000  1
  F  F8  1  0.00000000  0.00000000  0.00000000  1
  F  F9  1  0.89730156  0.61483157  0.77374110  1
  F  F10  1  -0.61483157  0.28246999  0.77374110  1
  F  F11  1  -0.28246999  -0.89730156  0.77374110  1
  F  F12  1  0.89730156  0.61483157  -0.77374110  1
  F  F13  1  -0.61483157  0.28246999  -0.77374110  1
  F  F14  1  -0.28246999  -0.89730156  -0.77374110  1
  F  F15  1  0.61483157  0.89730156  -0.77374110  1
  F  F16  1  0.28246999  -0.61483157  -0.77374110  1
  F  F17  1  -0.89730156  -0.28246999  -0.77374110  1
  F  F18  1  0.61483157  0.89730156  0.77374110  1
  F  F19  1  0.28246999  -0.61483157  0.77374110  1
  F  F20  1  -0.89730156  -0.28246999  0.77374110  1
  F  F21  1  0.68587174  0.00000000  0.00000000  1
  F  F22  1  0.00000000  0.68587174  0.00000000  1
  F  F23  1  0.31412826  0.31412826  0.00000000  1
  Li  Li24  1  0.39672265  0.00000000  0.50000000  1
  Li  Li25  1  0.00000000  0.39672265  0.50000000  1
  Li  Li26  1  0.60327735  0.60327735  0.50000000  1
  Li  Li27  1  0.69418683  0.00000000  0.37844163  1
  Li  Li28  1  0.00000000  0.69418683  0.37844163  1
  Li  Li29  1  0.30581317  0.30581317  0.37844163  1
  Li  Li30  1  0.69418683  0.00000000  0.62155837  1
  Li  Li31  1  0.00000000  0.69418683  0.62155837  1
  Li  Li32  1  0.30581317  0.30581317  0.62155837  1
  Li  Li33  1  0.00000000  0.00000000  0.50000000  1
  Li  Li34  1  0.53158007  0.00000000  0.28401284  1
  Li  Li35  1  0.00000000  0.53158007  0.28401284  1
  Li  Li36  1  0.46841993  0.46841993  0.28401284  1
  Li  Li37  1  0.53158007  0.00000000  0.71598716  1
  Li  Li38  1  0.00000000  0.53158007  0.71598716  1
  Li  Li39  1  0.46841993  0.46841993  0.71598716  1
  Li  Li40  1  0.56416282  0.32650794  0.00000000  1
  Li  Li41  1  0.67349206  0.23765488  0.00000000  1
  Li  Li42  1  0.76234512  0.43583718  0.00000000  1
  Li  Li43  1  0.32650794  0.56416282  0.00000000  1
  Li  Li44  1  0.23765488  0.67349206  0.00000000  1
  Li  Li45  1  0.43583718  0.76234512  0.00000000  1
  Li  Li46  1  0.33333333  0.66666667  0.50000000  1
  Li  Li47  1  0.66666667  0.33333333  0.50000000  1
