# generated using pymatgen
data_LiF
_symmetry_space_group_name_H-M   'P 1'
_cell_length_a   13.67131764
_cell_length_b   13.67131764
_cell_length_c   3.96571194
_cell_angle_alpha   90.00000000
_cell_angle_beta   90.00000000
_cell_angle_gamma   120.00000000
_symmetry_Int_Tables_number   1
_chemical_formula_structural   LiF
_chemical_formula_sum   'Li26 F26'
_cell_volume   641.90763986
_cell_formula_units_Z   26
loop_
 _symmetry_equiv_pos_site_id
 _symmetry_equiv_pos_as_xyz
  1  'x, y, z'
loop_
 _atom_site_type_symbol
 _atom_site_label
 _atom_site_symmetry_multiplicity
 _atom_site_fract_x
 _atom_site_fract_y
 _atom_site_fract_z
 _atom_site_occupancy
  F  F0  1  0.00000000  0.00000000  0.22939662  1
  F  F1  1  0.00000000  0.00000000  0.77060338  1
  F  F2  1  0.00000000  0.00000000  0.00000000  1
  F  F3  1  0.00000000  0.00000000  0.50000000  1
  F  F4  1  0.66390224  0.36630847  0.05860865  1
  F  F5  1  0.63369153  0.29759377  0.05860865  1
  F  F6  1  0.70240623  0.33609776  0.05860865  1
  F  F7  1  0.63369153  0.33609776  0.94139135  1
  F  F8  1  0.70240623  0.36630847  0.94139135  1
  F  F9  1  0.66390224  0.29759377  0.94139135  1
  F  F10  1  0.20443816  0.99396335  0.32036179  1
  F  F11  1  0.00603665  0.21047481  0.32036179  1
  F  F12  1  0.78952519  0.79556184  0.32036179  1
  F  F13  1  0.00603665  0.79556184  0.67963821  1
  F  F14  1  0.78952519  0.99396335  0.67963821  1
  F  F15  1  0.20443816  0.21047481  0.67963821  1
  F  F16  1  0.00063920  0.64878114  0.49334115  1
  F  F17  1  0.35121886  0.35185806  0.49334115  1
  F  F18  1  0.64814194  0.99936080  0.49334115  1
  F  F19  1  0.35121886  0.99936080  0.50665885  1
  F  F20  1  0.64814194  0.64878114  0.50665885  1
  F  F21  1  0.00063920  0.35185806  0.50665885  1
  F  F22  1  0.33333333  0.66666667  0.50000000  1
  F  F23  1  0.23341449  0.76658551  0.00000000  1
  F  F24  1  0.23341449  0.46682898  0.00000000  1
  F  F25  1  0.53317102  0.76658551  0.00000000  1
  Li  Li26  1  0.33333333  0.66666667  -0.00000000  1
  Li  Li27  1  0.66666667  0.33333333  0.50000000  1
  Li  Li28  1  0.83985538  0.87197504  0.71660726  1
  Li  Li29  1  -0.87197504  -0.03211966  0.71660726  1
  Li  Li30  1  0.03211966  -0.83985538  0.71660726  1
  Li  Li31  1  -0.87197504  -0.83985538  -0.71660726  1
  Li  Li32  1  0.03211966  0.87197504  -0.71660726  1
  Li  Li33  1  0.83985538  -0.03211966  -0.71660726  1
  Li  Li34  1  0.46517178  0.96945865  0.27875789  1
  Li  Li35  1  0.03054135  0.49571313  0.27875789  1
  Li  Li36  1  0.50428687  0.53482822  0.27875789  1
  Li  Li37  1  0.03054135  0.53482822  0.72124211  1
  Li  Li38  1  0.50428687  0.96945865  0.72124211  1
  Li  Li39  1  0.46517178  0.49571313  0.72124211  1
  Li  Li40  1  0.33008456  0.31106870  0.22691591  1
  Li  Li41  1  0.68893130  0.01901586  0.22691591  1
  Li  Li42  1  0.98098414  0.66991544  0.22691591  1
  Li  Li43  1  0.68893130  0.66991544  0.77308409  1
  Li  Li44  1  0.98098414  0.31106870  0.77308409  1
  Li  Li45  1  0.33008456  0.01901586  0.77308409  1
  Li  Li46  1  0.84756333  0.75644022  0.68270885  1
  Li  Li47  1  0.24355978  0.09112310  0.68270885  1
  Li  Li48  1  0.90887690  0.15243667  0.68270885  1
  Li  Li49  1  0.24355978  0.15243667  0.31729115  1
  Li  Li50  1  0.90887690  0.75644022  0.31729115  1
  Li  Li51  1  0.84756333  0.09112310  0.31729115  1
