# generated using pymatgen
data_LiF
_symmetry_space_group_name_H-M   'P 1'
_cell_length_a   11.77279925
_cell_length_b   10.02970325
_cell_length_c   10.59903645
_cell_angle_alpha   90.00000000
_cell_angle_beta   90.00000000
_cell_angle_gamma   90.00000000
_symmetry_Int_Tables_number   1
_chemical_formula_structural   LiF
_chemical_formula_sum   'Li32 F32'
_cell_volume   1251.50966507
_cell_formula_units_Z   32
loop_
 _symmetry_equiv_pos_site_id
 _symmetry_equiv_pos_as_xyz
  1  'x, y, z'
loop_
 _atom_site_type_symbol
 _atom_site_label
 _atom_site_symmetry_multiplicity
 _atom_site_fract_x
 _atom_site_fract_y
 _atom_site_fract_z
 _atom_site_occupancy
  F  F0  1  0.41685893  0.49961832  0.19496438  1
  F  F1  1  -0.41685893  -0.49961832  0.19496438  1
  F  F2  1  0.08314107  0.99961832  -0.19496438  1
  F  F3  1  0.91685893  0.00038168  -0.19496438  1
  F  F4  1  -0.41685893  -0.49961832  -0.19496438  1
  F  F5  1  0.41685893  0.49961832  -0.19496438  1
  F  F6  1  0.91685893  0.00038168  0.19496438  1
  F  F7  1  0.08314107  0.99961832  0.19496438  1
  F  F8  1  0.86918806  0.62321852  -0.00000000  1
  F  F9  1  0.13081194  0.37678148  0.00000000  1
  F  F10  1  0.63081194  0.12321852  -0.00000000  1
  F  F11  1  0.36918806  0.87678148  0.00000000  1
  F  F12  1  0.00000000  0.50000000  0.50000000  1
  F  F13  1  0.50000000  0.00000000  0.50000000  1
  F  F14  1  0.14781946  0.73998805  0.10900544  1
  F  F15  1  0.85218054  0.26001195  0.10900544  1
  F  F16  1  0.35218054  0.23998805  0.89099456  1
  F  F17  1  0.64781946  0.76001195  0.89099456  1
  F  F18  1  0.85218054  0.26001195  0.89099456  1
  F  F19  1  0.14781946  0.73998805  0.89099456  1
  F  F20  1  0.64781946  0.76001195  0.10900544  1
  F  F21  1  0.35218054  0.23998805  0.10900544  1
  F  F22  1  0.46686010  0.34552656  0.06574519  1
  F  F23  1  0.53313990  0.65447344  0.06574519  1
  F  F24  1  0.03313990  0.84552656  0.93425481  1
  F  F25  1  0.96686010  0.15447344  0.93425481  1
  F  F26  1  0.53313990  0.65447344  0.93425481  1
  F  F27  1  0.46686010  0.34552656  0.93425481  1
  F  F28  1  0.96686010  0.15447344  0.06574519  1
  F  F29  1  0.03313990  0.84552656  0.06574519  1
  F  F30  1  0.00000000  0.00000000  0.50000000  1
  F  F31  1  0.50000000  0.50000000  0.50000000  1
  Li  Li32  1  0.21300286  0.50091869  0.00000000  1
  Li  Li33  1  0.78699714  0.49908131  0.00000000  1
  Li  Li34  1  0.28699714  0.00091869  0.00000000  1
  Li  Li35  1  0.71300286  0.99908131  0.00000000  1
  Li  Li36  1  0.17072893  0.01877414  0.90807918  1
  Li  Li37  1  0.82927107  0.98122586  0.90807918  1
  Li  Li38  1  0.32927107  0.51877414  0.09192082  1
  Li  Li39  1  0.67072893  0.48122586  0.09192082  1
  Li  Li40  1  0.82927107  0.98122586  0.09192082  1
  Li  Li41  1  0.17072893  0.01877414  0.09192082  1
  Li  Li42  1  0.67072893  0.48122586  0.90807918  1
  Li  Li43  1  0.32927107  0.51877414  0.90807918  1
  Li  Li44  1  0.63036396  0.66586633  0.00000000  1
  Li  Li45  1  0.36963604  0.33413367  -0.00000000  1
  Li  Li46  1  0.86963604  0.16586633  0.00000000  1
  Li  Li47  1  0.13036396  0.83413367  0.00000000  1
  Li  Li48  1  0.20099954  0.74007303  0.17750466  1
  Li  Li49  1  0.79900046  0.25992697  0.17750466  1
  Li  Li50  1  0.29900046  0.24007303  0.82249534  1
  Li  Li51  1  0.70099954  0.75992697  0.82249534  1
  Li  Li52  1  0.79900046  0.25992697  0.82249534  1
  Li  Li53  1  0.20099954  0.74007303  0.82249534  1
  Li  Li54  1  0.70099954  0.75992697  0.17750466  1
  Li  Li55  1  0.29900046  0.24007303  0.17750466  1
  Li  Li56  1  0.55326330  0.20563726  0.36878340  1
  Li  Li57  1  0.44673670  0.79436274  0.36878340  1
  Li  Li58  1  0.94673670  0.70563726  0.63121660  1
  Li  Li59  1  0.05326330  0.29436274  0.63121660  1
  Li  Li60  1  0.44673670  0.79436274  0.63121660  1
  Li  Li61  1  0.55326330  0.20563726  0.63121660  1
  Li  Li62  1  0.05326330  0.29436274  0.36878340  1
  Li  Li63  1  0.94673670  0.70563726  0.36878340  1
