# generated using pymatgen
data_LiF
_symmetry_space_group_name_H-M   'P 1'
_cell_length_a   8.38191176
_cell_length_b   8.38191176
_cell_length_c   6.24553327
_cell_angle_alpha   90.00000000
_cell_angle_beta   90.00000000
_cell_angle_gamma   120.00000000
_symmetry_Int_Tables_number   1
_chemical_formula_structural   LiF
_chemical_formula_sum   'Li18 F18'
_cell_volume   380.00238931
_cell_formula_units_Z   18
loop_
 _symmetry_equiv_pos_site_id
 _symmetry_equiv_pos_as_xyz
  1  'x, y, z'
loop_
 _atom_site_type_symbol
 _atom_site_label
 _atom_site_symmetry_multiplicity
 _atom_site_fract_x
 _atom_site_fract_y
 _atom_site_fract_z
 _atom_site_occupancy
  F  F0  1  0.07361875  0.28773205  0.68398402  1
  F  F1  1  -0.28773205  -0.21411329  0.68398402  1
  F  F2  1  0.21411329  -0.07361875  0.68398402  1
  F  F3  1  0.07361875  0.28773205  -0.68398402  1
  F  F4  1  -0.28773205  -0.21411329  -0.68398402  1
  F  F5  1  0.21411329  -0.07361875  -0.68398402  1
  F  F6  1  0.28773205  0.07361875  -0.68398402  1
  F  F7  1  -0.21411329  -0.28773205  -0.68398402  1
  F  F8  1  -0.07361875  0.21411329  -0.68398402  1
  F  F9  1  0.28773205  0.07361875  0.68398402  1
  F  F10  1  -0.21411329  -0.28773205  0.68398402  1
  F  F11  1  -0.07361875  0.21411329  0.68398402  1
  F  F12  1  0.23227255  -0.00000000  0.00000000  1
  F  F13  1  0.00000000  0.23227255  -0.00000000  1
  F  F14  1  0.76772745  0.76772745  0.00000000  1
  F  F15  1  0.75945314  -0.00000000  0.00000000  1
  F  F16  1  0.00000000  0.75945314  -0.00000000  1
  F  F17  1  0.24054686  0.24054686  0.00000000  1
  Li  Li18  1  0.28470388  0.11730659  0.50000000  1
  Li  Li19  1  0.88269341  0.16739729  0.50000000  1
  Li  Li20  1  0.83260271  0.71529612  0.50000000  1
  Li  Li21  1  0.11730659  0.28470388  0.50000000  1
  Li  Li22  1  0.16739729  0.88269341  0.50000000  1
  Li  Li23  1  0.71529612  0.83260271  0.50000000  1
  Li  Li24  1  0.33333333  0.66666667  0.00000000  1
  Li  Li25  1  0.66666667  0.33333333  0.00000000  1
  Li  Li26  1  0.64873568  0.00000000  0.50000000  1
  Li  Li27  1  0.00000000  0.64873568  0.50000000  1
  Li  Li28  1  0.35126432  0.35126432  0.50000000  1
  Li  Li29  1  0.00000000  0.00000000  0.50000000  1
  Li  Li30  1  0.76270580  0.29622709  0.50000000  1
  Li  Li31  1  0.70377291  0.46647871  0.50000000  1
  Li  Li32  1  0.53352129  0.23729420  0.50000000  1
  Li  Li33  1  0.29622709  0.76270580  0.50000000  1
  Li  Li34  1  0.46647871  0.70377291  0.50000000  1
  Li  Li35  1  0.23729420  0.53352129  0.50000000  1
