# generated using pymatgen
data_LiF
_symmetry_space_group_name_H-M   'P 1'
_cell_length_a   14.80044656
_cell_length_b   7.54443672
_cell_length_c   13.23749485
_cell_angle_alpha   90.00000000
_cell_angle_beta   90.00000000
_cell_angle_gamma   90.00000000
_symmetry_Int_Tables_number   1
_chemical_formula_structural   LiF
_chemical_formula_sum   'Li40 F40'
_cell_volume   1478.11234244
_cell_formula_units_Z   40
loop_
 _symmetry_equiv_pos_site_id
 _symmetry_equiv_pos_as_xyz
  1  'x, y, z'
loop_
 _atom_site_type_symbol
 _atom_site_label
 _atom_site_symmetry_multiplicity
 _atom_site_fract_x
 _atom_site_fract_y
 _atom_site_fract_z
 _atom_site_occupancy
  F  F0  1  0.18202393  0.96528067  0.94124759  1
  F  F1  1  0.81797607  0.03471933  0.94124759  1
  F  F2  1  0.31797607  0.46528067  0.05875241  1
  F  F3  1  0.68202393  0.53471933  0.05875241  1
  F  F4  1  0.81797607  0.03471933  0.05875241  1
  F  F5  1  0.18202393  0.96528067  0.05875241  1
  F  F6  1  0.68202393  0.53471933  0.94124759  1
  F  F7  1  0.31797607  0.46528067  0.94124759  1
  F  F8  1  0.03770851  0.76705178  0.77862085  1
  F  F9  1  0.96229149  0.23294822  0.77862085  1
  F  F10  1  0.46229149  0.26705178  0.22137915  1
  F  F11  1  0.53770851  0.73294822  0.22137915  1
  F  F12  1  0.96229149  0.23294822  0.22137915  1
  F  F13  1  0.03770851  0.76705178  0.22137915  1
  F  F14  1  0.53770851  0.73294822  0.77862085  1
  F  F15  1  0.46229149  0.26705178  0.77862085  1
  F  F16  1  0.32263241  0.32029107  0.29927253  1
  F  F17  1  0.67736759  0.67970893  0.29927253  1
  F  F18  1  0.17736759  0.82029107  0.70072747  1
  F  F19  1  0.82263241  0.17970893  0.70072747  1
  F  F20  1  0.67736759  0.67970893  0.70072747  1
  F  F21  1  0.32263241  0.32029107  0.70072747  1
  F  F22  1  0.82263241  0.17970893  0.29927253  1
  F  F23  1  0.17736759  0.82029107  0.29927253  1
  F  F24  1  0.06533270  0.42593415  0.60955449  1
  F  F25  1  0.93466730  0.57406585  0.60955449  1
  F  F26  1  0.43466730  0.92593415  0.39044551  1
  F  F27  1  0.56533270  0.07406585  0.39044551  1
  F  F28  1  0.93466730  0.57406585  0.39044551  1
  F  F29  1  0.06533270  0.42593415  0.39044551  1
  F  F30  1  0.56533270  0.07406585  0.60955449  1
  F  F31  1  0.43466730  0.92593415  0.60955449  1
  F  F32  1  0.36628256  0.20930995  0.44541227  1
  F  F33  1  0.63371744  0.79069005  0.44541227  1
  F  F34  1  0.13371744  0.70930995  0.55458773  1
  F  F35  1  0.86628256  0.29069005  0.55458773  1
  F  F36  1  0.63371744  0.79069005  0.55458773  1
  F  F37  1  0.36628256  0.20930995  0.55458773  1
  F  F38  1  0.86628256  0.29069005  0.44541227  1
  F  F39  1  0.13371744  0.70930995  0.44541227  1
  Li  Li40  1  0.39731371  0.84974804  0.09349381  1
  Li  Li41  1  -0.39731371  -0.84974804  0.09349381  1
  Li  Li42  1  0.10268629  1.34974804  -0.09349381  1
  Li  Li43  1  0.89731371  -0.34974804  -0.09349381  1
  Li  Li44  1  -0.39731371  -0.84974804  -0.09349381  1
  Li  Li45  1  0.39731371  0.84974804  -0.09349381  1
  Li  Li46  1  0.89731371  -0.34974804  0.09349381  1
  Li  Li47  1  0.10268629  1.34974804  0.09349381  1
  Li  Li48  1  0.49903426  0.90292589  -0.00000000  1
  Li  Li49  1  0.50096574  0.09707411  0.00000000  1
  Li  Li50  1  0.00096574  0.40292589  0.00000000  1
  Li  Li51  1  0.99903426  0.59707411  0.00000000  1
  Li  Li52  1  0.80604845  0.18768580  0.00000000  1
  Li  Li53  1  0.19395155  0.81231420  0.00000000  1
  Li  Li54  1  0.69395155  0.68768580  0.00000000  1
  Li  Li55  1  0.30604845  0.31231420  0.00000000  1
  Li  Li56  1  0.00000000  0.00000000  0.00000000  1
  Li  Li57  1  0.50000000  0.50000000  0.00000000  1
  Li  Li58  1  0.00000000  0.00000000  0.50000000  1
  Li  Li59  1  0.50000000  0.50000000  0.50000000  1
  Li  Li60  1  0.55099565  0.56585131  0.35152865  1
  Li  Li61  1  0.44900435  0.43414869  0.35152865  1
  Li  Li62  1  0.94900435  0.06585131  0.64847135  1
  Li  Li63  1  0.05099565  0.93414869  0.64847135  1
  Li  Li64  1  0.44900435  0.43414869  0.64847135  1
  Li  Li65  1  0.55099565  0.56585131  0.64847135  1
  Li  Li66  1  0.05099565  0.93414869  0.35152865  1
  Li  Li67  1  0.94900435  0.06585131  0.35152865  1
  Li  Li68  1  0.14696727  0.04516477  0.85463630  1
  Li  Li69  1  0.85303273  0.95483523  0.85463630  1
  Li  Li70  1  0.35303273  0.54516477  0.14536370  1
  Li  Li71  1  0.64696727  0.45483523  0.14536370  1
  Li  Li72  1  0.85303273  0.95483523  0.14536370  1
  Li  Li73  1  0.14696727  0.04516477  0.14536370  1
  Li  Li74  1  0.64696727  0.45483523  0.85463630  1
  Li  Li75  1  0.35303273  0.54516477  0.85463630  1
  Li  Li76  1  0.00000000  0.00000000  0.21286835  1
  Li  Li77  1  0.50000000  0.50000000  0.78713165  1
  Li  Li78  1  0.00000000  0.00000000  0.78713165  1
  Li  Li79  1  0.50000000  0.50000000  0.21286835  1
