# generated using pymatgen
data_LiF
_symmetry_space_group_name_H-M   'P 1'
_cell_length_a   9.91659258
_cell_length_b   9.91659258
_cell_length_c   7.61087997
_cell_angle_alpha   90.00000000
_cell_angle_beta   90.00000000
_cell_angle_gamma   120.00000000
_symmetry_Int_Tables_number   1
_chemical_formula_structural   LiF
_chemical_formula_sum   'Li25 F25'
_cell_volume   648.17226899
_cell_formula_units_Z   25
loop_
 _symmetry_equiv_pos_site_id
 _symmetry_equiv_pos_as_xyz
  1  'x, y, z'
loop_
 _atom_site_type_symbol
 _atom_site_label
 _atom_site_symmetry_multiplicity
 _atom_site_fract_x
 _atom_site_fract_y
 _atom_site_fract_z
 _atom_site_occupancy
  F  F0  1  0.07422118  0.07715033  0.82818859  1
  F  F1  1  0.92284967  0.99707084  0.82818859  1
  F  F2  1  0.00292916  0.92577882  0.82818859  1
  F  F3  1  0.92284967  0.92577882  0.17181141  1
  F  F4  1  0.00292916  0.07715033  0.17181141  1
  F  F5  1  0.07422118  0.99707084  0.17181141  1
  F  F6  1  0.00000000  0.00000000  0.50000000  1
  F  F7  1  0.73505654  0.97202720  0.80352978  1
  F  F8  1  0.02797280  0.76302934  0.80352978  1
  F  F9  1  0.23697066  0.26494346  0.80352978  1
  F  F10  1  0.02797280  0.26494346  0.19647022  1
  F  F11  1  0.23697066  0.97202720  0.19647022  1
  F  F12  1  0.73505654  0.76302934  0.19647022  1
  F  F13  1  0.28076651  0.71923349  0.50000000  1
  F  F14  1  0.28076651  0.56153302  0.50000000  1
  F  F15  1  0.43846698  0.71923349  0.50000000  1
  F  F16  1  0.56681976  0.67323123  0.46031753  1
  F  F17  1  0.32676877  0.89358853  0.46031753  1
  F  F18  1  0.10641147  0.43318024  0.46031753  1
  F  F19  1  0.32676877  0.43318024  0.53968247  1
  F  F20  1  0.10641147  0.67323123  0.53968247  1
  F  F21  1  0.56681976  0.89358853  0.53968247  1
  F  F22  1  0.44814892  0.55185108  0.50000000  1
  F  F23  1  0.44814892  0.89629785  0.50000000  1
  F  F24  1  0.10370215  0.55185108  0.50000000  1
  Li  Li25  1  0.00000000  0.00000000  0.31928969  1
  Li  Li26  1  0.00000000  0.00000000  0.68071031  1
  Li  Li27  1  0.25393874  0.06950113  0.32008574  1
  Li  Li28  1  -0.06950113  0.18443761  0.32008574  1
  Li  Li29  1  -0.18443761  -0.25393874  0.32008574  1
  Li  Li30  1  -0.06950113  -0.25393874  -0.32008574  1
  Li  Li31  1  -0.18443761  0.06950113  -0.32008574  1
  Li  Li32  1  0.25393874  0.18443761  -0.32008574  1
  Li  Li33  1  0.26582511  0.76221896  0.24484519  1
  Li  Li34  1  0.23778104  0.50360615  0.24484519  1
  Li  Li35  1  0.49639385  0.73417489  0.24484519  1
  Li  Li36  1  0.23778104  0.73417489  0.75515481  1
  Li  Li37  1  0.49639385  0.76221896  0.75515481  1
  Li  Li38  1  0.26582511  0.50360615  0.75515481  1
  Li  Li39  1  0.95764439  0.45123814  0.85218417  1
  Li  Li40  1  0.54876186  0.50640625  0.85218417  1
  Li  Li41  1  0.49359375  0.04235561  0.85218417  1
  Li  Li42  1  0.54876186  0.04235561  0.14781583  1
  Li  Li43  1  0.49359375  0.45123814  0.14781583  1
  Li  Li44  1  0.95764439  0.50640625  0.14781583  1
  Li  Li45  1  0.44543238  0.55456762  0.00000000  1
  Li  Li46  1  0.44543238  0.89086476  0.00000000  1
  Li  Li47  1  0.10913524  0.55456762  0.00000000  1
  Li  Li48  1  0.00000000  0.00000000  0.00000000  1
  Li  Li49  1  0.33333333  0.66666667  0.00000000  1
