# generated using pymatgen
data_LiF
_symmetry_space_group_name_H-M   'P 1'
_cell_length_a   11.15281357
_cell_length_b   11.15281357
_cell_length_c   9.50497647
_cell_angle_alpha   90.00000000
_cell_angle_beta   90.00000000
_cell_angle_gamma   90.00000000
_symmetry_Int_Tables_number   1
_chemical_formula_structural   LiF
_chemical_formula_sum   'Li64 F64'
_cell_volume   1182.27887950
_cell_formula_units_Z   64
loop_
 _symmetry_equiv_pos_site_id
 _symmetry_equiv_pos_as_xyz
  1  'x, y, z'
loop_
 _atom_site_type_symbol
 _atom_site_label
 _atom_site_symmetry_multiplicity
 _atom_site_fract_x
 _atom_site_fract_y
 _atom_site_fract_z
 _atom_site_occupancy
  F  F0  1  0.19005975  0.72333086  0.91606512  1
  F  F1  1  -0.19005975  -0.72333086  0.91606512  1
  F  F2  1  -0.72333086  0.19005975  0.91606512  1
  F  F3  1  0.72333086  -0.19005975  0.91606512  1
  F  F4  1  -0.19005975  0.72333086  -0.91606512  1
  F  F5  1  0.19005975  -0.72333086  -0.91606512  1
  F  F6  1  0.72333086  0.19005975  -0.91606512  1
  F  F7  1  -0.72333086  -0.19005975  -0.91606512  1
  F  F8  1  -0.19005975  -0.72333086  -0.91606512  1
  F  F9  1  0.19005975  0.72333086  -0.91606512  1
  F  F10  1  0.72333086  -0.19005975  -0.91606512  1
  F  F11  1  -0.72333086  0.19005975  -0.91606512  1
  F  F12  1  0.19005975  -0.72333086  0.91606512  1
  F  F13  1  -0.19005975  0.72333086  0.91606512  1
  F  F14  1  -0.72333086  -0.19005975  0.91606512  1
  F  F15  1  0.72333086  0.19005975  0.91606512  1
  F  F16  1  0.50000000  0.50000000  0.67494271  1
  F  F17  1  0.50000000  0.50000000  0.32505729  1
  F  F18  1  0.50000000  0.50000000  0.04155189  1
  F  F19  1  0.50000000  0.50000000  0.95844811  1
  F  F20  1  0.26836542  0.34921344  0.72475539  1
  F  F21  1  0.73163458  0.65078656  0.72475539  1
  F  F22  1  0.65078656  0.26836542  0.72475539  1
  F  F23  1  0.34921344  0.73163458  0.72475539  1
  F  F24  1  0.73163458  0.34921344  0.27524461  1
  F  F25  1  0.26836542  0.65078656  0.27524461  1
  F  F26  1  0.34921344  0.26836542  0.27524461  1
  F  F27  1  0.65078656  0.73163458  0.27524461  1
  F  F28  1  0.73163458  0.65078656  0.27524461  1
  F  F29  1  0.26836542  0.34921344  0.27524461  1
  F  F30  1  0.34921344  0.73163458  0.27524461  1
  F  F31  1  0.65078656  0.26836542  0.27524461  1
  F  F32  1  0.26836542  0.65078656  0.72475539  1
  F  F33  1  0.73163458  0.34921344  0.72475539  1
  F  F34  1  0.65078656  0.73163458  0.72475539  1
  F  F35  1  0.34921344  0.26836542  0.72475539  1
  F  F36  1  0.16130011  0.16130011  0.00000000  1
  F  F37  1  0.83869989  0.83869989  0.00000000  1
  F  F38  1  0.83869989  0.16130011  0.00000000  1
  F  F39  1  0.16130011  0.83869989  0.00000000  1
  F  F40  1  0.76602866  0.50000000  0.50000000  1
  F  F41  1  0.23397134  0.50000000  0.50000000  1
  F  F42  1  0.50000000  0.76602866  0.50000000  1
  F  F43  1  0.50000000  0.23397134  0.50000000  1
  F  F44  1  0.67050558  0.88283093  0.13685806  1
  F  F45  1  0.32949442  0.11716907  0.13685806  1
  F  F46  1  0.11716907  0.67050558  0.13685806  1
  F  F47  1  0.88283093  0.32949442  0.13685806  1
  F  F48  1  0.32949442  0.88283093  0.86314194  1
  F  F49  1  0.67050558  0.11716907  0.86314194  1
  F  F50  1  0.88283093  0.67050558  0.86314194  1
  F  F51  1  0.11716907  0.32949442  0.86314194  1
  F  F52  1  0.32949442  0.11716907  0.86314194  1
  F  F53  1  0.67050558  0.88283093  0.86314194  1
  F  F54  1  0.88283093  0.32949442  0.86314194  1
  F  F55  1  0.11716907  0.67050558  0.86314194  1
  F  F56  1  0.67050558  0.11716907  0.13685806  1
  F  F57  1  0.32949442  0.88283093  0.13685806  1
  F  F58  1  0.11716907  0.32949442  0.13685806  1
  F  F59  1  0.88283093  0.67050558  0.13685806  1
  F  F60  1  0.23067632  0.00000000  0.50000000  1
  F  F61  1  0.76932368  0.00000000  0.50000000  1
  F  F62  1  0.00000000  0.23067632  0.50000000  1
  F  F63  1  0.00000000  0.76932368  0.50000000  1
  Li  Li64  1  0.82958339  0.08570513  0.73265717  1
  Li  Li65  1  0.17041661  0.91429487  0.73265717  1
  Li  Li66  1  0.91429487  0.82958339  0.73265717  1
  Li  Li67  1  0.08570513  0.17041661  0.73265717  1
  Li  Li68  1  0.17041661  0.08570513  0.26734283  1
  Li  Li69  1  0.82958339  0.91429487  0.26734283  1
  Li  Li70  1  0.08570513  0.82958339  0.26734283  1
  Li  Li71  1  0.91429487  0.17041661  0.26734283  1
  Li  Li72  1  0.17041661  0.91429487  0.26734283  1
  Li  Li73  1  0.82958339  0.08570513  0.26734283  1
  Li  Li74  1  0.08570513  0.17041661  0.26734283  1
  Li  Li75  1  0.91429487  0.82958339  0.26734283  1
  Li  Li76  1  0.82958339  0.91429487  0.73265717  1
  Li  Li77  1  0.17041661  0.08570513  0.73265717  1
  Li  Li78  1  0.91429487  0.17041661  0.73265717  1
  Li  Li79  1  0.08570513  0.82958339  0.73265717  1
  Li  Li80  1  0.71637723  0.59105897  0.58870435  1
  Li  Li81  1  0.28362277  0.40894103  0.58870435  1
  Li  Li82  1  0.40894103  0.71637723  0.58870435  1
  Li  Li83  1  0.59105897  0.28362277  0.58870435  1
  Li  Li84  1  0.28362277  0.59105897  0.41129565  1
  Li  Li85  1  0.71637723  0.40894103  0.41129565  1
  Li  Li86  1  0.59105897  0.71637723  0.41129565  1
  Li  Li87  1  0.40894103  0.28362277  0.41129565  1
  Li  Li88  1  0.28362277  0.40894103  0.41129565  1
  Li  Li89  1  0.71637723  0.59105897  0.41129565  1
  Li  Li90  1  0.59105897  0.28362277  0.41129565  1
  Li  Li91  1  0.40894103  0.71637723  0.41129565  1
  Li  Li92  1  0.71637723  0.40894103  0.58870435  1
  Li  Li93  1  0.28362277  0.59105897  0.58870435  1
  Li  Li94  1  0.40894103  0.28362277  0.58870435  1
  Li  Li95  1  0.59105897  0.71637723  0.58870435  1
  Li  Li96  1  0.10924201  0.50000000  0.63055144  1
  Li  Li97  1  0.89075799  0.50000000  0.63055144  1
  Li  Li98  1  0.50000000  0.10924201  0.63055144  1
  Li  Li99  1  0.50000000  0.89075799  0.63055144  1
  Li  Li100  1  0.89075799  0.50000000  0.36944856  1
  Li  Li101  1  0.10924201  0.50000000  0.36944856  1
  Li  Li102  1  0.50000000  0.10924201  0.36944856  1
  Li  Li103  1  0.50000000  0.89075799  0.36944856  1
  Li  Li104  1  0.37787813  0.00000000  0.71086634  1
  Li  Li105  1  0.62212187  0.00000000  0.71086634  1
  Li  Li106  1  0.00000000  0.37787813  0.71086634  1
  Li  Li107  1  0.00000000  0.62212187  0.71086634  1
  Li  Li108  1  0.62212187  0.00000000  0.28913366  1
  Li  Li109  1  0.37787813  0.00000000  0.28913366  1
  Li  Li110  1  0.00000000  0.37787813  0.28913366  1
  Li  Li111  1  0.00000000  0.62212187  0.28913366  1
  Li  Li112  1  0.61552288  0.00000000  0.00000000  1
  Li  Li113  1  0.38447712  0.00000000  -0.00000000  1
  Li  Li114  1  0.00000000  0.61552288  0.00000000  1
  Li  Li115  1  0.00000000  0.38447712  -0.00000000  1
  Li  Li116  1  0.74250673  0.74250673  0.76704518  1
  Li  Li117  1  0.25749327  0.25749327  0.76704518  1
  Li  Li118  1  0.25749327  0.74250673  0.76704518  1
  Li  Li119  1  0.74250673  0.25749327  0.76704518  1
  Li  Li120  1  0.25749327  0.74250673  0.23295482  1
  Li  Li121  1  0.74250673  0.25749327  0.23295482  1
  Li  Li122  1  0.74250673  0.74250673  0.23295482  1
  Li  Li123  1  0.25749327  0.25749327  0.23295482  1
  Li  Li124  1  0.29819472  0.50000000  0.00000000  1
  Li  Li125  1  0.70180528  0.50000000  0.00000000  1
  Li  Li126  1  0.50000000  0.29819472  0.00000000  1
  Li  Li127  1  0.50000000  0.70180528  0.00000000  1
