# generated using pymatgen
data_LiF
_symmetry_space_group_name_H-M   'P 1'
_cell_length_a   4.86048149
_cell_length_b   4.86048149
_cell_length_c   46.17638524
_cell_angle_alpha   90.00000000
_cell_angle_beta   90.00000000
_cell_angle_gamma   90.00000000
_symmetry_Int_Tables_number   1
_chemical_formula_structural   LiF
_chemical_formula_sum   'Li48 F48'
_cell_volume   1090.88387071
_cell_formula_units_Z   48
loop_
 _symmetry_equiv_pos_site_id
 _symmetry_equiv_pos_as_xyz
  1  'x, y, z'
loop_
 _atom_site_type_symbol
 _atom_site_label
 _atom_site_symmetry_multiplicity
 _atom_site_fract_x
 _atom_site_fract_y
 _atom_site_fract_z
 _atom_site_occupancy
  F  F0  1  0.88974553  0.46745031  0.11041191  1
  F  F1  1  -0.38974553  -0.46745031  0.61041191  1
  F  F2  1  -0.21745031  1.63974553  0.36041191  1
  F  F3  1  0.71745031  -0.63974553  0.86041191  1
  F  F4  1  -0.38974553  0.46745031  -0.11041191  1
  F  F5  1  0.88974553  -0.46745031  0.38958809  1
  F  F6  1  0.71745031  1.63974553  0.63958809  1
  F  F7  1  -0.21745031  -0.63974553  0.13958809  1
  F  F8  1  -0.88974553  -0.46745031  -0.11041191  1
  F  F9  1  1.38974553  0.46745031  0.38958809  1
  F  F10  1  1.21745031  -0.63974553  0.63958809  1
  F  F11  1  0.28254969  1.63974553  0.13958809  1
  F  F12  1  1.38974553  -0.46745031  0.11041191  1
  F  F13  1  -0.88974553  0.46745031  0.61041191  1
  F  F14  1  0.28254969  -0.63974553  0.36041191  1
  F  F15  1  1.21745031  1.63974553  0.86041191  1
  F  F16  1  1.38974553  0.96745031  0.61041191  1
  F  F17  1  0.11025447  0.03254969  1.11041191  1
  F  F18  1  0.28254969  2.13974553  0.86041191  1
  F  F19  1  1.21745031  -0.13974553  1.36041191  1
  F  F20  1  0.11025447  0.96745031  0.38958809  1
  F  F21  1  1.38974553  0.03254969  0.88958809  1
  F  F22  1  1.21745031  2.13974553  1.13958809  1
  F  F23  1  0.28254969  -0.13974553  0.63958809  1
  F  F24  1  -0.38974553  0.03254969  0.38958809  1
  F  F25  1  1.88974553  0.96745031  0.88958809  1
  F  F26  1  1.71745031  -0.13974553  1.13958809  1
  F  F27  1  0.78254969  2.13974553  0.63958809  1
  F  F28  1  1.88974553  0.03254969  0.61041191  1
  F  F29  1  -0.38974553  0.96745031  1.11041191  1
  F  F30  1  0.78254969  -0.13974553  0.86041191  1
  F  F31  1  1.71745031  2.13974553  1.36041191  1
  F  F32  1  0.00000000  0.25000000  0.02587109  1
  F  F33  1  0.00000000  0.75000000  0.27587109  1
  F  F34  1  0.50000000  0.25000000  0.97412891  1
  F  F35  1  0.50000000  0.75000000  0.72412891  1
  F  F36  1  0.00000000  0.75000000  0.97412891  1
  F  F37  1  0.00000000  0.25000000  0.72412891  1
  F  F38  1  0.50000000  0.75000000  0.02587109  1
  F  F39  1  0.50000000  0.25000000  0.27587109  1
  F  F40  1  0.50000000  0.75000000  0.52587109  1
  F  F41  1  0.50000000  0.25000000  0.77587109  1
  F  F42  1  0.00000000  0.75000000  0.47412891  1
  F  F43  1  0.00000000  0.25000000  0.22412891  1
  F  F44  1  0.50000000  0.25000000  0.47412891  1
  F  F45  1  0.50000000  0.75000000  0.22412891  1
  F  F46  1  0.00000000  0.25000000  0.52587109  1
  F  F47  1  0.00000000  0.75000000  0.77587109  1
  Li  Li48  1  0.00000000  0.25000000  0.37500000  1
  Li  Li49  1  0.00000000  0.75000000  0.62500000  1
  Li  Li50  1  0.50000000  0.25000000  0.62500000  1
  Li  Li51  1  0.50000000  0.75000000  0.37500000  1
  Li  Li52  1  0.50000000  0.75000000  0.87500000  1
  Li  Li53  1  0.50000000  0.25000000  0.12500000  1
  Li  Li54  1  0.00000000  0.75000000  0.12500000  1
  Li  Li55  1  0.00000000  0.25000000  0.87500000  1
  Li  Li56  1  0.00444949  0.00000000  0.25000000  1
  Li  Li57  1  0.49555051  0.00000000  0.75000000  1
  Li  Li58  1  0.25000000  0.75444949  0.50000000  1
  Li  Li59  1  0.25000000  0.24555051  0.00000000  1
  Li  Li60  1  0.99555051  0.00000000  0.75000000  1
  Li  Li61  1  0.50444949  0.00000000  0.25000000  1
  Li  Li62  1  0.75000000  0.24555051  0.50000000  1
  Li  Li63  1  0.75000000  0.75444949  0.00000000  1
  Li  Li64  1  0.50444949  0.50000000  0.75000000  1
  Li  Li65  1  0.99555051  0.50000000  0.25000000  1
  Li  Li66  1  0.75000000  0.25444949  0.00000000  1
  Li  Li67  1  0.75000000  0.74555051  0.50000000  1
  Li  Li68  1  0.49555051  0.50000000  0.25000000  1
  Li  Li69  1  0.00444949  0.50000000  0.75000000  1
  Li  Li70  1  0.25000000  0.74555051  -0.00000000  1
  Li  Li71  1  0.25000000  0.25444949  0.50000000  1
  Li  Li72  1  0.00000000  0.25000000  0.12500000  1
  Li  Li73  1  0.00000000  0.75000000  0.37500000  1
  Li  Li74  1  0.00000000  0.75000000  0.87500000  1
  Li  Li75  1  0.00000000  0.25000000  0.62500000  1
  Li  Li76  1  0.50000000  0.75000000  0.62500000  1
  Li  Li77  1  0.50000000  0.25000000  0.87500000  1
  Li  Li78  1  0.50000000  0.25000000  0.37500000  1
  Li  Li79  1  0.50000000  0.75000000  0.12500000  1
  Li  Li80  1  0.00000000  0.00000000  0.00000000  1
  Li  Li81  1  0.50000000  0.00000000  0.50000000  1
  Li  Li82  1  0.25000000  0.75000000  0.25000000  1
  Li  Li83  1  0.25000000  0.25000000  0.75000000  1
  Li  Li84  1  0.50000000  0.00000000  0.00000000  1
  Li  Li85  1  0.00000000  0.00000000  0.50000000  1
  Li  Li86  1  0.25000000  0.75000000  0.75000000  1
  Li  Li87  1  0.25000000  0.25000000  0.25000000  1
  Li  Li88  1  0.50000000  0.50000000  0.50000000  1
  Li  Li89  1  0.00000000  0.50000000  0.00000000  1
  Li  Li90  1  0.75000000  0.25000000  0.75000000  1
  Li  Li91  1  0.75000000  0.75000000  0.25000000  1
  Li  Li92  1  0.00000000  0.50000000  0.50000000  1
  Li  Li93  1  0.50000000  0.50000000  0.00000000  1
  Li  Li94  1  0.75000000  0.25000000  0.25000000  1
  Li  Li95  1  0.75000000  0.75000000  0.75000000  1
