# generated using pymatgen
data_LiF
_symmetry_space_group_name_H-M   'P 1'
_cell_length_a   8.14197716
_cell_length_b   5.48806198
_cell_length_c   14.76467300
_cell_angle_alpha   90.00000000
_cell_angle_beta   90.00000000
_cell_angle_gamma   90.00000000
_symmetry_Int_Tables_number   1
_chemical_formula_structural   LiF
_chemical_formula_sum   'Li24 F24'
_cell_volume   659.73985380
_cell_formula_units_Z   24
loop_
 _symmetry_equiv_pos_site_id
 _symmetry_equiv_pos_as_xyz
  1  'x, y, z'
loop_
 _atom_site_type_symbol
 _atom_site_label
 _atom_site_symmetry_multiplicity
 _atom_site_fract_x
 _atom_site_fract_y
 _atom_site_fract_z
 _atom_site_occupancy
  F  F0  1  0.95299525  0.49863946  0.92380968  1
  F  F1  1  0.54700475  0.50136054  0.42380968  1
  F  F2  1  0.04700475  0.99863946  0.07619032  1
  F  F3  1  0.45299525  0.00136054  0.57619032  1
  F  F4  1  0.04700475  0.50136054  0.07619032  1
  F  F5  1  0.45299525  0.49863946  0.57619032  1
  F  F6  1  0.95299525  0.00136054  0.92380968  1
  F  F7  1  0.54700475  0.99863946  0.42380968  1
  F  F8  1  0.75975050  0.39248915  0.49458983  1
  F  F9  1  0.74024950  0.60751085  0.99458983  1
  F  F10  1  0.24024950  0.89248915  0.50541017  1
  F  F11  1  0.25975050  0.10751085  0.00541017  1
  F  F12  1  0.24024950  0.60751085  0.50541017  1
  F  F13  1  0.25975050  0.39248915  0.00541017  1
  F  F14  1  0.75975050  0.10751085  0.49458983  1
  F  F15  1  0.74024950  0.89248915  0.99458983  1
  F  F16  1  0.36138825  0.40672819  0.20920678  1
  F  F17  1  0.13861175  0.59327181  0.70920678  1
  F  F18  1  0.63861175  0.90672819  0.79079322  1
  F  F19  1  0.86138825  0.09327181  0.29079322  1
  F  F20  1  0.63861175  0.59327181  0.79079322  1
  F  F21  1  0.86138825  0.40672819  0.29079322  1
  F  F22  1  0.36138825  0.09327181  0.20920678  1
  F  F23  1  0.13861175  0.90672819  0.70920678  1
  Li  Li24  1  0.69686155  0.48591648  0.26111754  1
  Li  Li25  1  -0.19686155  -0.48591648  0.76111754  1
  Li  Li26  1  -0.69686155  0.98591648  -0.26111754  1
  Li  Li27  1  1.19686155  0.01408352  0.23888246  1
  Li  Li28  1  -0.69686155  -0.48591648  -0.26111754  1
  Li  Li29  1  1.19686155  0.48591648  0.23888246  1
  Li  Li30  1  0.69686155  0.01408352  0.26111754  1
  Li  Li31  1  -0.19686155  0.98591648  0.76111754  1
  Li  Li32  1  0.30289149  0.25000000  0.97001754  1
  Li  Li33  1  0.19710851  0.75000000  0.47001754  1
  Li  Li34  1  0.69710851  0.75000000  0.02998246  1
  Li  Li35  1  0.80289149  0.25000000  0.52998246  1
  Li  Li36  1  0.00000000  0.00000000  0.50000000  1
  Li  Li37  1  0.50000000  0.00000000  0.00000000  1
  Li  Li38  1  0.00000000  0.50000000  0.50000000  1
  Li  Li39  1  0.50000000  0.50000000  -0.00000000  1
  Li  Li40  1  0.83445463  0.02929767  0.98673940  1
  Li  Li41  1  0.66554537  0.97070233  0.48673940  1
  Li  Li42  1  0.16554537  0.52929767  0.01326060  1
  Li  Li43  1  0.33445463  0.47070233  0.51326060  1
  Li  Li44  1  0.16554537  0.97070233  0.01326060  1
  Li  Li45  1  0.33445463  0.02929767  0.51326060  1
  Li  Li46  1  0.83445463  0.47070233  0.98673940  1
  Li  Li47  1  0.66554537  0.52929767  0.48673940  1
