# generated using pymatgen
data_LiF
_symmetry_space_group_name_H-M   'P 1'
_cell_length_a   8.33757993
_cell_length_b   8.33757993
_cell_length_c   6.78661522
_cell_angle_alpha   90.00000000
_cell_angle_beta   90.00000000
_cell_angle_gamma   120.00000000
_symmetry_Int_Tables_number   1
_chemical_formula_structural   LiF
_chemical_formula_sum   'Li18 F18'
_cell_volume   408.56755810
_cell_formula_units_Z   18
loop_
 _symmetry_equiv_pos_site_id
 _symmetry_equiv_pos_as_xyz
  1  'x, y, z'
loop_
 _atom_site_type_symbol
 _atom_site_label
 _atom_site_symmetry_multiplicity
 _atom_site_fract_x
 _atom_site_fract_y
 _atom_site_fract_z
 _atom_site_occupancy
  F  F0  1  0.66666667  0.33333333  0.00000000  1
  F  F1  1  0.00000000  0.00000000  0.50000000  1
  F  F2  1  0.00000000  0.00000000  0.00000000  1
  F  F3  1  0.00942573  0.51650670  0.56842976  1
  F  F4  1  0.48349330  0.49291903  0.56842976  1
  F  F5  1  0.50708097  0.99057427  0.56842976  1
  F  F6  1  0.48349330  0.99057427  0.43157024  1
  F  F7  1  0.50708097  0.51650670  0.43157024  1
  F  F8  1  0.00942573  0.49291903  0.43157024  1
  F  F9  1  0.43291854  0.08917627  0.88735142  1
  F  F10  1  0.91082373  0.34374227  0.88735142  1
  F  F11  1  0.65625773  0.56708146  0.88735142  1
  F  F12  1  0.91082373  0.56708146  0.11264858  1
  F  F13  1  0.65625773  0.08917627  0.11264858  1
  F  F14  1  0.43291854  0.34374227  0.11264858  1
  F  F15  1  0.75352391  0.24647609  0.00000000  1
  F  F16  1  0.75352391  0.50704783  0.00000000  1
  F  F17  1  0.49295217  0.24647609  0.00000000  1
  Li  Li18  1  0.00000000  0.00000000  0.76936305  1
  Li  Li19  1  0.00000000  0.00000000  0.23063695  1
  Li  Li20  1  0.66666667  0.33333333  0.60917072  1
  Li  Li21  1  0.66666667  0.33333333  0.39082928  1
  Li  Li22  1  0.33333333  0.66666667  0.00000000  1
  Li  Li23  1  0.27618619  0.14341651  0.85623384  1
  Li  Li24  1  -0.14341651  0.13276967  0.85623384  1
  Li  Li25  1  -0.13276967  -0.27618619  0.85623384  1
  Li  Li26  1  -0.14341651  -0.27618619  -0.85623384  1
  Li  Li27  1  -0.13276967  0.14341651  -0.85623384  1
  Li  Li28  1  0.27618619  0.13276967  -0.85623384  1
  Li  Li29  1  0.39557496  0.53482831  0.88316475  1
  Li  Li30  1  0.46517169  0.86074665  0.88316475  1
  Li  Li31  1  0.13925335  0.60442504  0.88316475  1
  Li  Li32  1  0.46517169  0.60442504  0.11683525  1
  Li  Li33  1  0.13925335  0.53482831  0.11683525  1
  Li  Li34  1  0.39557496  0.86074665  0.11683525  1
  Li  Li35  1  0.33333333  0.66666667  0.50000000  1
