# generated using pymatgen
data_Li2Y(MoP)2
_symmetry_space_group_name_H-M   'P 1'
_cell_length_a   4.70185210
_cell_length_b   4.84578819
_cell_length_c   6.97576546
_cell_angle_alpha   95.62268149
_cell_angle_beta   102.00539597
_cell_angle_gamma   111.02787665
_symmetry_Int_Tables_number   1
_chemical_formula_structural   Li2Y(MoP)2
_chemical_formula_sum   'Li2 Y1 Mo2 P2'
_cell_volume   142.49101185
_cell_formula_units_Z   1
loop_
 _symmetry_equiv_pos_site_id
 _symmetry_equiv_pos_as_xyz
  1  'x, y, z'
loop_
 _atom_site_type_symbol
 _atom_site_label
 _atom_site_symmetry_multiplicity
 _atom_site_fract_x
 _atom_site_fract_y
 _atom_site_fract_z
 _atom_site_occupancy
  P  P0  1  0.12500000  0.12500000  0.12500000  1
  P  P1  1  0.50000000  0.50000000  0.50000000  1
  Mo  Mo2  1  0.25000000  0.25000000  0.25000000  1
  Mo  Mo3  1  0.75000000  0.75000000  0.75000000  1
  Li  Li4  1  0.77439073  0.25252400  0.03364069  1
  Li  Li5  1  0.01224509  0.09894074  0.04954034  1
  Y  Y6  1  0.99631255  0.85144516  0.00488565  1
