# generated using pymatgen
data_LiY2Te4P2Se
_symmetry_space_group_name_H-M   'P 1'
_cell_length_a   4.48982510
_cell_length_b   4.67542913
_cell_length_c   6.35692445
_cell_angle_alpha   95.48223003
_cell_angle_beta   99.86948433
_cell_angle_gamma   107.46439275
_symmetry_Int_Tables_number   1
_chemical_formula_structural   LiY2Te4P2Se
_chemical_formula_sum   'Li1 Y2 Te4 P2 Se1'
_cell_volume   123.86536463
_cell_formula_units_Z   1
loop_
 _symmetry_equiv_pos_site_id
 _symmetry_equiv_pos_as_xyz
  1  'x, y, z'
loop_
 _atom_site_type_symbol
 _atom_site_label
 _atom_site_symmetry_multiplicity
 _atom_site_fract_x
 _atom_site_fract_y
 _atom_site_fract_z
 _atom_site_occupancy
  Se  Se0  1  0.12500000  0.00000000  0.25000000  1
  Te  Te1  1  0.00000000  0.00000000  0.00000000  1
  Te  Te2  1  0.37500000  0.00000000  0.25000000  1
  Te  Te3  1  0.25000000  0.25000000  0.25000000  1
  Te  Te4  1  0.00000000  0.25000000  0.12500000  1
  Y  Y5  1  0.09010000  0.16679362  0.66662057  1
  Y  Y6  1  0.03536092  0.55258050  0.46950197  1
  P  P7  1  0.12695757  0.50675349  0.08664229  1
  P  P8  1  0.61620359  0.52945856  0.77177117  1
  Li  Li9  1  0.79279658  0.22599682  0.72792939  1
