# generated using pymatgen
data_LiF
_symmetry_space_group_name_H-M   'P 1'
_cell_length_a   14.00796457
_cell_length_b   9.61739143
_cell_length_c   7.54746100
_cell_angle_alpha   90.00000000
_cell_angle_beta   90.00000000
_cell_angle_gamma   90.00000000
_symmetry_Int_Tables_number   1
_chemical_formula_structural   LiF
_chemical_formula_sum   'Li72 F72'
_cell_volume   1016.79453853
_cell_formula_units_Z   72
loop_
 _symmetry_equiv_pos_site_id
 _symmetry_equiv_pos_as_xyz
  1  'x, y, z'
loop_
 _atom_site_type_symbol
 _atom_site_label
 _atom_site_symmetry_multiplicity
 _atom_site_fract_x
 _atom_site_fract_y
 _atom_site_fract_z
 _atom_site_occupancy
  F  F0  1  0.09880199  0.25000000  0.43088263  1
  F  F1  1  0.40119801  0.75000000  0.93088263  1
  F  F2  1  0.90119801  0.75000000  0.56911737  1
  F  F3  1  0.59880199  0.25000000  0.06911737  1
  F  F4  1  0.92142723  0.38269127  0.30062795  1
  F  F5  1  0.57857277  0.61730873  0.80062795  1
  F  F6  1  0.07857277  0.88269127  0.69937205  1
  F  F7  1  0.42142723  0.11730873  0.19937205  1
  F  F8  1  0.07857277  0.61730873  0.69937205  1
  F  F9  1  0.42142723  0.38269127  0.19937205  1
  F  F10  1  0.92142723  0.11730873  0.30062795  1
  F  F11  1  0.57857277  0.88269127  0.80062795  1
  F  F12  1  0.43760896  0.33062673  0.02761023  1
  F  F13  1  0.06239104  0.66937327  0.52761023  1
  F  F14  1  0.56239104  0.83062673  0.97238977  1
  F  F15  1  0.93760896  0.16937327  0.47238977  1
  F  F16  1  0.56239104  0.66937327  0.97238977  1
  F  F17  1  0.93760896  0.33062673  0.47238977  1
  F  F18  1  0.43760896  0.16937327  0.02761023  1
  F  F19  1  0.06239104  0.83062673  0.52761023  1
  F  F20  1  0.89130585  0.33585494  0.84400981  1
  F  F21  1  0.60869415  0.66414506  0.34400981  1
  F  F22  1  0.10869415  0.83585494  0.15599019  1
  F  F23  1  0.39130585  0.16414506  0.65599019  1
  F  F24  1  0.10869415  0.66414506  0.15599019  1
  F  F25  1  0.39130585  0.33585494  0.65599019  1
  F  F26  1  0.89130585  0.16414506  0.84400981  1
  F  F27  1  0.60869415  0.83585494  0.34400981  1
  F  F28  1  0.60026144  0.25000000  0.56592198  1
  F  F29  1  0.89973856  0.75000000  0.06592198  1
  F  F30  1  0.39973856  0.75000000  0.43407802  1
  F  F31  1  0.10026144  0.25000000  0.93407802  1
  F  F32  1  0.09192057  0.01650754  0.97363511  1
  F  F33  1  0.40807943  0.98349246  0.47363511  1
  F  F34  1  0.90807943  0.51650754  0.02636489  1
  F  F35  1  0.59192057  0.48349246  0.52636489  1
  F  F36  1  0.90807943  0.98349246  0.02636489  1
  F  F37  1  0.59192057  0.01650754  0.52636489  1
  F  F38  1  0.09192057  0.48349246  0.97363511  1
  F  F39  1  0.40807943  0.51650754  0.47363511  1
  F  F40  1  0.12892878  0.64523602  0.85479416  1
  F  F41  1  0.37107122  0.35476398  0.35479416  1
  F  F42  1  0.87107122  0.14523602  0.14520584  1
  F  F43  1  0.62892878  0.85476398  0.64520584  1
  F  F44  1  0.87107122  0.35476398  0.14520584  1
  F  F45  1  0.62892878  0.64523602  0.64520584  1
  F  F46  1  0.12892878  0.85476398  0.85479416  1
  F  F47  1  0.37107122  0.14523602  0.35479416  1
  F  F48  1  0.80470249  0.87379821  0.22493014  1
  F  F49  1  0.69529751  0.12620179  0.72493014  1
  F  F50  1  0.19529751  0.37379821  0.77506986  1
  F  F51  1  0.30470249  0.62620179  0.27506986  1
  F  F52  1  0.19529751  0.12620179  0.77506986  1
  F  F53  1  0.30470249  0.87379821  0.27506986  1
  F  F54  1  0.80470249  0.62620179  0.22493014  1
  F  F55  1  0.69529751  0.37379821  0.72493014  1
  F  F56  1  0.00000000  0.00000000  0.50000000  1
  F  F57  1  0.50000000  0.00000000  0.00000000  1
  F  F58  1  0.00000000  0.50000000  0.50000000  1
  F  F59  1  0.50000000  0.50000000  0.00000000  1
  F  F60  1  0.14430488  0.80308008  0.44980855  1
  F  F61  1  0.35569512  0.19691992  0.94980855  1
  F  F62  1  0.85569512  0.30308008  0.55019145  1
  F  F63  1  0.64430488  0.69691992  0.05019145  1
  F  F64  1  0.85569512  0.19691992  0.55019145  1
  F  F65  1  0.64430488  0.80308008  0.05019145  1
  F  F66  1  0.14430488  0.69691992  0.44980855  1
  F  F67  1  0.35569512  0.30308008  0.94980855  1
  F  F68  1  0.09709402  0.25000000  0.14601377  1
  F  F69  1  0.40290598  0.75000000  0.64601377  1
  F  F70  1  0.90290598  0.75000000  0.85398623  1
  F  F71  1  0.59709402  0.25000000  0.35398623  1
  Li  Li72  1  0.52097684  0.25000000  0.72924705  1
  Li  Li73  1  0.97902316  0.75000000  0.22924705  1
  Li  Li74  1  0.47902316  0.75000000  0.27075295  1
  Li  Li75  1  0.02097684  0.25000000  0.77075295  1
  Li  Li76  1  0.57030802  0.49218751  0.94233554  1
  Li  Li77  1  -0.07030802  -0.49218751  1.44233554  1
  Li  Li78  1  -0.57030802  0.99218751  -0.94233554  1
  Li  Li79  1  1.07030802  0.00781249  -0.44233554  1
  Li  Li80  1  -0.57030802  -0.49218751  -0.94233554  1
  Li  Li81  1  1.07030802  0.49218751  -0.44233554  1
  Li  Li82  1  0.57030802  0.00781249  0.94233554  1
  Li  Li83  1  -0.07030802  0.99218751  1.44233554  1
  Li  Li84  1  0.38196622  0.50621705  0.86970462  1
  Li  Li85  1  0.11803378  0.49378295  0.36970462  1
  Li  Li86  1  0.61803378  0.00621705  0.13029538  1
  Li  Li87  1  0.88196622  0.99378295  0.63029538  1
  Li  Li88  1  0.61803378  0.49378295  0.13029538  1
  Li  Li89  1  0.88196622  0.50621705  0.63029538  1
  Li  Li90  1  0.38196622  0.99378295  0.86970462  1
  Li  Li91  1  0.11803378  0.00621705  0.36970462  1
  Li  Li92  1  0.23503854  0.94821812  0.06099218  1
  Li  Li93  1  0.26496146  0.05178188  0.56099218  1
  Li  Li94  1  0.76496146  0.44821812  0.93900782  1
  Li  Li95  1  0.73503854  0.55178188  0.43900782  1
  Li  Li96  1  0.76496146  0.05178188  0.93900782  1
  Li  Li97  1  0.73503854  0.94821812  0.43900782  1
  Li  Li98  1  0.23503854  0.55178188  0.06099218  1
  Li  Li99  1  0.26496146  0.44821812  0.56099218  1
  Li  Li100  1  0.34298084  0.25000000  0.74352316  1
  Li  Li101  1  0.15701916  0.75000000  0.24352316  1
  Li  Li102  1  0.65701916  0.75000000  0.25647684  1
  Li  Li103  1  0.84298084  0.25000000  0.75647684  1
  Li  Li104  1  0.31462882  0.86908488  0.12294888  1
  Li  Li105  1  0.18537118  0.13091512  0.62294888  1
  Li  Li106  1  0.68537118  0.36908488  0.87705112  1
  Li  Li107  1  0.81462882  0.63091512  0.37705112  1
  Li  Li108  1  0.68537118  0.13091512  0.87705112  1
  Li  Li109  1  0.81462882  0.86908488  0.37705112  1
  Li  Li110  1  0.31462882  0.63091512  0.12294888  1
  Li  Li111  1  0.18537118  0.36908488  0.62294888  1
  Li  Li112  1  0.00000000  0.00000000  0.00000000  1
  Li  Li113  1  0.50000000  0.00000000  0.50000000  1
  Li  Li114  1  0.00000000  0.50000000  0.00000000  1
  Li  Li115  1  0.50000000  0.50000000  0.50000000  1
  Li  Li116  1  0.22101427  0.25000000  0.01453872  1
  Li  Li117  1  0.27898573  0.75000000  0.51453872  1
  Li  Li118  1  0.77898573  0.75000000  0.98546128  1
  Li  Li119  1  0.72101427  0.25000000  0.48546128  1
  Li  Li120  1  0.32034673  0.25000000  0.30714000  1
  Li  Li121  1  0.17965327  0.75000000  0.80714000  1
  Li  Li122  1  0.67965327  0.75000000  0.69286000  1
  Li  Li123  1  0.82034673  0.25000000  0.19286000  1
  Li  Li124  1  0.96285961  0.65668517  0.65790052  1
  Li  Li125  1  0.53714039  0.34331483  0.15790052  1
  Li  Li126  1  0.03714039  0.15668517  0.34209948  1
  Li  Li127  1  0.46285961  0.84331483  0.84209948  1
  Li  Li128  1  0.03714039  0.34331483  0.34209948  1
  Li  Li129  1  0.46285961  0.65668517  0.84209948  1
  Li  Li130  1  0.96285961  0.84331483  0.65790052  1
  Li  Li131  1  0.53714039  0.15668517  0.15790052  1
  Li  Li132  1  0.79623688  0.65863358  0.64673832  1
  Li  Li133  1  0.70376312  0.34136642  0.14673832  1
  Li  Li134  1  0.20376312  0.15863358  0.35326168  1
  Li  Li135  1  0.29623688  0.84136642  0.85326168  1
  Li  Li136  1  0.20376312  0.34136642  0.35326168  1
  Li  Li137  1  0.29623688  0.65863358  0.85326168  1
  Li  Li138  1  0.79623688  0.84136642  0.64673832  1
  Li  Li139  1  0.70376312  0.15863358  0.14673832  1
  Li  Li140  1  0.93311897  0.25000000  0.20652022  1
  Li  Li141  1  0.56688103  0.75000000  0.70652022  1
  Li  Li142  1  0.06688103  0.75000000  0.79347978  1
  Li  Li143  1  0.43311897  0.25000000  0.29347978  1
