# generated using pymatgen
data_Li4TeF2
_symmetry_space_group_name_H-M   'P 1'
_cell_length_a   14.18193816
_cell_length_b   14.18193816
_cell_length_c   16.25697834
_cell_angle_alpha   90.00000000
_cell_angle_beta   90.00000000
_cell_angle_gamma   90.00000000
_symmetry_Int_Tables_number   1
_chemical_formula_structural   Li4TeF2
_chemical_formula_sum   'Li96 Te24 F48'
_cell_volume   3269.72329739
_cell_formula_units_Z   24
loop_
 _symmetry_equiv_pos_site_id
 _symmetry_equiv_pos_as_xyz
  1  'x, y, z'
loop_
 _atom_site_type_symbol
 _atom_site_label
 _atom_site_symmetry_multiplicity
 _atom_site_fract_x
 _atom_site_fract_y
 _atom_site_fract_z
 _atom_site_occupancy
  F  F0  1  0.12749132  0.36493874  0.64417889  1
  F  F1  1  0.37250868  -0.36493874  1.14417889  1
  F  F2  1  -0.11493874  0.87749132  0.89417889  1
  F  F3  1  0.61493874  0.12250868  1.39417889  1
  F  F4  1  0.37250868  0.36493874  -0.14417889  1
  F  F5  1  0.12749132  -0.36493874  -0.64417889  1
  F  F6  1  0.61493874  0.87749132  -0.39417889  1
  F  F7  1  -0.11493874  0.12250868  0.10582111  1
  F  F8  1  -0.12749132  -0.36493874  -0.64417889  1
  F  F9  1  0.62749132  0.36493874  -0.14417889  1
  F  F10  1  1.11493874  0.12250868  0.10582111  1
  F  F11  1  0.38506126  0.87749132  -0.39417889  1
  F  F12  1  0.62749132  -0.36493874  1.14417889  1
  F  F13  1  -0.12749132  0.36493874  0.64417889  1
  F  F14  1  0.38506126  0.12250868  1.39417889  1
  F  F15  1  1.11493874  0.87749132  0.89417889  1
  F  F16  1  0.62749132  0.86493874  1.14417889  1
  F  F17  1  0.87250868  0.13506126  1.64417889  1
  F  F18  1  0.38506126  1.37749132  1.39417889  1
  F  F19  1  1.11493874  0.62250868  1.89417889  1
  F  F20  1  0.87250868  0.86493874  0.35582111  1
  F  F21  1  0.62749132  0.13506126  -0.14417889  1
  F  F22  1  1.11493874  1.37749132  0.10582111  1
  F  F23  1  0.38506126  0.62250868  0.60582111  1
  F  F24  1  0.37250868  0.13506126  -0.14417889  1
  F  F25  1  1.12749132  0.86493874  0.35582111  1
  F  F26  1  1.61493874  0.62250868  0.60582111  1
  F  F27  1  0.88506126  1.37749132  0.10582111  1
  F  F28  1  1.12749132  0.13506126  1.64417889  1
  F  F29  1  0.37250868  0.86493874  1.14417889  1
  F  F30  1  0.88506126  0.62250868  1.89417889  1
  F  F31  1  1.61493874  1.37749132  1.39417889  1
  F  F32  1  0.93891292  0.00000000  0.00000000  1
  F  F33  1  0.56108708  0.00000000  0.50000000  1
  F  F34  1  0.25000000  0.68891292  0.25000000  1
  F  F35  1  0.25000000  0.31108708  0.75000000  1
  F  F36  1  0.06108708  0.00000000  0.00000000  1
  F  F37  1  0.43891292  0.00000000  0.50000000  1
  F  F38  1  0.75000000  0.31108708  0.75000000  1
  F  F39  1  0.75000000  0.68891292  0.25000000  1
  F  F40  1  0.43891292  0.50000000  0.50000000  1
  F  F41  1  0.06108708  0.50000000  0.00000000  1
  F  F42  1  0.75000000  0.18891292  0.75000000  1
  F  F43  1  0.75000000  0.81108708  0.25000000  1
  F  F44  1  0.56108708  0.50000000  0.50000000  1
  F  F45  1  0.93891292  0.50000000  0.00000000  1
  F  F46  1  0.25000000  0.81108708  0.25000000  1
  F  F47  1  0.25000000  0.18891292  0.75000000  1
  Li  Li48  1  0.00000000  0.48359427  0.08297239  1
  Li  Li49  1  0.50000000  0.51640573  0.58297239  1
  Li  Li50  1  0.76640573  0.75000000  0.33297239  1
  Li  Li51  1  0.73359427  0.25000000  0.83297239  1
  Li  Li52  1  0.50000000  0.48359427  0.41702761  1
  Li  Li53  1  0.00000000  0.51640573  0.91702761  1
  Li  Li54  1  0.73359427  0.75000000  0.16702761  1
  Li  Li55  1  0.76640573  0.25000000  0.66702761  1
  Li  Li56  1  0.50000000  0.98359427  0.58297239  1
  Li  Li57  1  0.00000000  0.01640573  0.08297239  1
  Li  Li58  1  0.26640573  0.25000000  0.83297239  1
  Li  Li59  1  0.23359427  0.75000000  0.33297239  1
  Li  Li60  1  0.00000000  0.98359427  0.91702761  1
  Li  Li61  1  0.50000000  0.01640573  0.41702761  1
  Li  Li62  1  0.23359427  0.25000000  0.66702761  1
  Li  Li63  1  0.26640573  0.75000000  0.16702761  1
  Li  Li64  1  0.18815338  0.36279965  0.03486133  1
  Li  Li65  1  0.31184662  0.63720035  0.53486133  1
  Li  Li66  1  0.88720035  0.93815338  0.28486133  1
  Li  Li67  1  0.61279965  0.06184662  0.78486133  1
  Li  Li68  1  0.31184662  0.36279965  0.46513867  1
  Li  Li69  1  0.18815338  0.63720035  0.96513867  1
  Li  Li70  1  0.61279965  0.93815338  0.21513867  1
  Li  Li71  1  0.88720035  0.06184662  0.71513867  1
  Li  Li72  1  0.81184662  0.63720035  0.96513867  1
  Li  Li73  1  0.68815338  0.36279965  0.46513867  1
  Li  Li74  1  0.11279965  0.06184662  0.71513867  1
  Li  Li75  1  0.38720035  0.93815338  0.21513867  1
  Li  Li76  1  0.68815338  0.63720035  0.53486133  1
  Li  Li77  1  0.81184662  0.36279965  0.03486133  1
  Li  Li78  1  0.38720035  0.06184662  0.78486133  1
  Li  Li79  1  0.11279965  0.93815338  0.28486133  1
  Li  Li80  1  0.68815338  0.86279965  0.53486133  1
  Li  Li81  1  0.81184662  0.13720035  0.03486133  1
  Li  Li82  1  0.38720035  0.43815338  0.78486133  1
  Li  Li83  1  0.11279965  0.56184662  0.28486133  1
  Li  Li84  1  0.81184662  0.86279965  0.96513867  1
  Li  Li85  1  0.68815338  0.13720035  0.46513867  1
  Li  Li86  1  0.11279965  0.43815338  0.71513867  1
  Li  Li87  1  0.38720035  0.56184662  0.21513867  1
  Li  Li88  1  0.31184662  0.13720035  0.46513867  1
  Li  Li89  1  0.18815338  0.86279965  0.96513867  1
  Li  Li90  1  0.61279965  0.56184662  0.21513867  1
  Li  Li91  1  0.88720035  0.43815338  0.71513867  1
  Li  Li92  1  0.18815338  0.13720035  0.03486133  1
  Li  Li93  1  0.31184662  0.86279965  0.53486133  1
  Li  Li94  1  0.88720035  0.56184662  0.28486133  1
  Li  Li95  1  0.61279965  0.43815338  0.78486133  1
  Li  Li96  1  0.94522483  0.84550751  0.33777652  1
  Li  Li97  1  0.55477517  0.15449249  0.83777652  1
  Li  Li98  1  0.40449249  0.69522483  0.58777652  1
  Li  Li99  1  0.09550751  0.30477517  0.08777652  1
  Li  Li100  1  0.55477517  0.84550751  0.16222348  1
  Li  Li101  1  0.94522483  0.15449249  0.66222348  1
  Li  Li102  1  0.09550751  0.69522483  0.91222348  1
  Li  Li103  1  0.40449249  0.30477517  0.41222348  1
  Li  Li104  1  0.05477517  0.15449249  0.66222348  1
  Li  Li105  1  0.44522483  0.84550751  0.16222348  1
  Li  Li106  1  0.59550751  0.30477517  0.41222348  1
  Li  Li107  1  0.90449249  0.69522483  0.91222348  1
  Li  Li108  1  0.44522483  0.15449249  0.83777652  1
  Li  Li109  1  0.05477517  0.84550751  0.33777652  1
  Li  Li110  1  0.90449249  0.30477517  0.08777652  1
  Li  Li111  1  0.59550751  0.69522483  0.58777652  1
  Li  Li112  1  0.44522483  0.34550751  0.83777652  1
  Li  Li113  1  0.05477517  0.65449249  0.33777652  1
  Li  Li114  1  0.90449249  0.19522483  0.08777652  1
  Li  Li115  1  0.59550751  0.80477517  0.58777652  1
  Li  Li116  1  0.05477517  0.34550751  0.66222348  1
  Li  Li117  1  0.44522483  0.65449249  0.16222348  1
  Li  Li118  1  0.59550751  0.19522483  0.41222348  1
  Li  Li119  1  0.90449249  0.80477517  0.91222348  1
  Li  Li120  1  0.55477517  0.65449249  0.16222348  1
  Li  Li121  1  0.94522483  0.34550751  0.66222348  1
  Li  Li122  1  0.09550751  0.80477517  0.91222348  1
  Li  Li123  1  0.40449249  0.19522483  0.41222348  1
  Li  Li124  1  0.94522483  0.65449249  0.33777652  1
  Li  Li125  1  0.55477517  0.34550751  0.83777652  1
  Li  Li126  1  0.40449249  0.80477517  0.58777652  1
  Li  Li127  1  0.09550751  0.19522483  0.08777652  1
  Li  Li128  1  0.00000000  0.92575662  0.81274083  1
  Li  Li129  1  0.50000000  0.07424338  0.31274083  1
  Li  Li130  1  0.32424338  0.75000000  0.06274083  1
  Li  Li131  1  0.17575662  0.25000000  0.56274083  1
  Li  Li132  1  0.50000000  0.92575662  0.68725917  1
  Li  Li133  1  0.00000000  0.07424338  0.18725917  1
  Li  Li134  1  0.17575662  0.75000000  0.43725917  1
  Li  Li135  1  0.32424338  0.25000000  0.93725917  1
  Li  Li136  1  0.50000000  0.42575662  0.31274083  1
  Li  Li137  1  0.00000000  0.57424338  0.81274083  1
  Li  Li138  1  0.82424338  0.25000000  0.56274083  1
  Li  Li139  1  0.67575662  0.75000000  0.06274083  1
  Li  Li140  1  0.00000000  0.42575662  0.18725917  1
  Li  Li141  1  0.50000000  0.57424338  0.68725917  1
  Li  Li142  1  0.67575662  0.25000000  0.93725917  1
  Li  Li143  1  0.82424338  0.75000000  0.43725917  1
  Te  Te144  1  0.00000000  0.25000000  0.56935375  1
  Te  Te145  1  0.00000000  0.75000000  0.81935375  1
  Te  Te146  1  0.50000000  0.25000000  0.93064625  1
  Te  Te147  1  0.50000000  0.75000000  0.68064625  1
  Te  Te148  1  0.50000000  0.75000000  0.06935375  1
  Te  Te149  1  0.50000000  0.25000000  0.31935375  1
  Te  Te150  1  0.00000000  0.75000000  0.43064625  1
  Te  Te151  1  0.00000000  0.25000000  0.18064625  1
  Te  Te152  1  0.00000000  0.25000000  0.79204524  1
  Te  Te153  1  0.00000000  0.75000000  0.04204524  1
  Te  Te154  1  0.50000000  0.25000000  0.70795476  1
  Te  Te155  1  0.50000000  0.75000000  0.45795476  1
  Te  Te156  1  0.50000000  0.75000000  0.29204524  1
  Te  Te157  1  0.50000000  0.25000000  0.54204524  1
  Te  Te158  1  0.00000000  0.75000000  0.20795476  1
  Te  Te159  1  0.00000000  0.25000000  0.95795476  1
  Te  Te160  1  0.00000000  0.00000000  0.50000000  1
  Te  Te161  1  0.50000000  0.00000000  0.00000000  1
  Te  Te162  1  0.25000000  0.75000000  0.75000000  1
  Te  Te163  1  0.25000000  0.25000000  0.25000000  1
  Te  Te164  1  0.50000000  0.50000000  0.00000000  1
  Te  Te165  1  0.00000000  0.50000000  0.50000000  1
  Te  Te166  1  0.75000000  0.25000000  0.25000000  1
  Te  Te167  1  0.75000000  0.75000000  0.75000000  1
