# generated using pymatgen
data_Li2Si4Te3F12
_symmetry_space_group_name_H-M   'P 1'
_cell_length_a   7.23193822
_cell_length_b   7.23193822
_cell_length_c   29.10387396
_cell_angle_alpha   90.00000000
_cell_angle_beta   90.00000000
_cell_angle_gamma   90.00000000
_symmetry_Int_Tables_number   1
_chemical_formula_structural   Li2Si4Te3F12
_chemical_formula_sum   'Li8 Si16 Te12 F48'
_cell_volume   1522.15968682
_cell_formula_units_Z   4
loop_
 _symmetry_equiv_pos_site_id
 _symmetry_equiv_pos_as_xyz
  1  'x, y, z'
loop_
 _atom_site_type_symbol
 _atom_site_label
 _atom_site_symmetry_multiplicity
 _atom_site_fract_x
 _atom_site_fract_y
 _atom_site_fract_z
 _atom_site_occupancy
  F  F0  1  0.00000000  0.87987853  0.97302441  1
  F  F1  1  0.50000000  0.12012147  0.47302441  1
  F  F2  1  0.37012147  0.75000000  0.22302441  1
  F  F3  1  0.12987853  0.25000000  0.72302441  1
  F  F4  1  0.50000000  0.87987853  0.52697559  1
  F  F5  1  0.00000000  0.12012147  0.02697559  1
  F  F6  1  0.12987853  0.75000000  0.27697559  1
  F  F7  1  0.37012147  0.25000000  0.77697559  1
  F  F8  1  0.50000000  0.37987853  0.47302441  1
  F  F9  1  0.00000000  0.62012147  0.97302441  1
  F  F10  1  0.87012147  0.25000000  0.72302441  1
  F  F11  1  0.62987853  0.75000000  0.22302441  1
  F  F12  1  0.00000000  0.37987853  0.02697559  1
  F  F13  1  0.50000000  0.62012147  0.52697559  1
  F  F14  1  0.62987853  0.25000000  0.77697559  1
  F  F15  1  0.87012147  0.75000000  0.27697559  1
  F  F16  1  0.16670893  0.06809085  0.32731987  1
  F  F17  1  0.33329107  -0.06809085  0.82731987  1
  F  F18  1  0.18190915  0.91670893  0.57731987  1
  F  F19  1  0.31809085  0.08329107  1.07731987  1
  F  F20  1  0.33329107  0.06809085  0.17268013  1
  F  F21  1  0.16670893  -0.06809085  -0.32731987  1
  F  F22  1  0.31809085  0.91670893  -0.07731987  1
  F  F23  1  0.18190915  0.08329107  0.42268013  1
  F  F24  1  -0.16670893  -0.06809085  -0.32731987  1
  F  F25  1  0.66670893  0.06809085  0.17268013  1
  F  F26  1  0.81809085  0.08329107  0.42268013  1
  F  F27  1  0.68190915  0.91670893  -0.07731987  1
  F  F28  1  0.66670893  -0.06809085  0.82731987  1
  F  F29  1  -0.16670893  0.06809085  0.32731987  1
  F  F30  1  0.68190915  0.08329107  1.07731987  1
  F  F31  1  0.81809085  0.91670893  0.57731987  1
  F  F32  1  0.66670893  0.56809085  0.82731987  1
  F  F33  1  0.83329107  0.43190915  1.32731987  1
  F  F34  1  0.68190915  1.41670893  1.07731987  1
  F  F35  1  0.81809085  0.58329107  1.57731987  1
  F  F36  1  0.83329107  0.56809085  0.67268013  1
  F  F37  1  0.66670893  0.43190915  0.17268013  1
  F  F38  1  0.81809085  1.41670893  0.42268013  1
  F  F39  1  0.68190915  0.58329107  0.92268013  1
  F  F40  1  0.33329107  0.43190915  0.17268013  1
  F  F41  1  1.16670893  0.56809085  0.67268013  1
  F  F42  1  1.31809085  0.58329107  0.92268013  1
  F  F43  1  1.18190915  1.41670893  0.42268013  1
  F  F44  1  1.16670893  0.43190915  1.32731987  1
  F  F45  1  0.33329107  0.56809085  0.82731987  1
  F  F46  1  1.18190915  0.58329107  1.57731987  1
  F  F47  1  1.31809085  1.41670893  1.07731987  1
  Li  Li48  1  0.00000000  0.00000000  0.50000000  1
  Li  Li49  1  0.50000000  0.00000000  0.00000000  1
  Li  Li50  1  0.25000000  0.75000000  0.75000000  1
  Li  Li51  1  0.25000000  0.25000000  0.25000000  1
  Li  Li52  1  0.50000000  0.50000000  0.00000000  1
  Li  Li53  1  0.00000000  0.50000000  0.50000000  1
  Li  Li54  1  0.75000000  0.25000000  0.25000000  1
  Li  Li55  1  0.75000000  0.75000000  0.75000000  1
  Si  Si56  1  0.00000000  0.34248535  0.44031671  1
  Si  Si57  1  0.50000000  0.65751465  0.94031671  1
  Si  Si58  1  0.90751465  0.75000000  0.69031671  1
  Si  Si59  1  0.59248535  0.25000000  0.19031671  1
  Si  Si60  1  0.50000000  0.34248535  0.05968329  1
  Si  Si61  1  0.00000000  0.65751465  0.55968329  1
  Si  Si62  1  0.59248535  0.75000000  0.80968329  1
  Si  Si63  1  0.90751465  0.25000000  0.30968329  1
  Si  Si64  1  0.50000000  0.84248535  0.94031671  1
  Si  Si65  1  0.00000000  0.15751465  0.44031671  1
  Si  Si66  1  0.40751465  0.25000000  0.19031671  1
  Si  Si67  1  0.09248535  0.75000000  0.69031671  1
  Si  Si68  1  0.00000000  0.84248535  0.55968329  1
  Si  Si69  1  0.50000000  0.15751465  0.05968329  1
  Si  Si70  1  0.09248535  0.25000000  0.30968329  1
  Si  Si71  1  0.40751465  0.75000000  0.80968329  1
  Te  Te72  1  0.00000000  0.25000000  0.61296193  1
  Te  Te73  1  0.00000000  0.75000000  0.86296193  1
  Te  Te74  1  0.50000000  0.25000000  0.88703807  1
  Te  Te75  1  0.50000000  0.75000000  0.63703807  1
  Te  Te76  1  0.50000000  0.75000000  0.11296193  1
  Te  Te77  1  0.50000000  0.25000000  0.36296193  1
  Te  Te78  1  0.00000000  0.75000000  0.38703807  1
  Te  Te79  1  0.00000000  0.25000000  0.13703807  1
  Te  Te80  1  0.00000000  0.75000000  0.12500000  1
  Te  Te81  1  0.50000000  0.75000000  0.37500000  1
  Te  Te82  1  0.50000000  0.25000000  0.62500000  1
  Te  Te83  1  0.00000000  0.25000000  0.87500000  1
