# generated using pymatgen
data_Li2Ca3F8
_symmetry_space_group_name_H-M   'P 1'
_cell_length_a   8.62851965
_cell_length_b   12.45770864
_cell_length_c   10.92396632
_cell_angle_alpha   90.00000000
_cell_angle_beta   90.00000000
_cell_angle_gamma   90.00000000
_symmetry_Int_Tables_number   1
_chemical_formula_structural   Li2Ca3F8
_chemical_formula_sum   'Li16 Ca24 F64'
_cell_volume   1174.23444193
_cell_formula_units_Z   8
loop_
 _symmetry_equiv_pos_site_id
 _symmetry_equiv_pos_as_xyz
  1  'x, y, z'
loop_
 _atom_site_type_symbol
 _atom_site_label
 _atom_site_symmetry_multiplicity
 _atom_site_fract_x
 _atom_site_fract_y
 _atom_site_fract_z
 _atom_site_occupancy
  Ca  Ca0  1  0.87205968  0.59291396  0.50000000  1
  Ca  Ca1  1  0.12794032  0.40708604  0.50000000  1
  Ca  Ca2  1  0.62794032  0.09291396  0.50000000  1
  Ca  Ca3  1  0.37205968  0.90708604  0.50000000  1
  Ca  Ca4  1  0.40131821  0.55315743  0.00000000  1
  Ca  Ca5  1  0.59868179  0.44684257  -0.00000000  1
  Ca  Ca6  1  0.09868179  0.05315743  0.00000000  1
  Ca  Ca7  1  0.90131821  0.94684257  -0.00000000  1
  Ca  Ca8  1  0.17113143  0.85756375  0.66481530  1
  Ca  Ca9  1  0.82886857  0.14243625  0.66481530  1
  Ca  Ca10  1  0.32886857  0.35756375  0.33518470  1
  Ca  Ca11  1  0.67113143  0.64243625  0.33518470  1
  Ca  Ca12  1  0.82886857  0.14243625  0.33518470  1
  Ca  Ca13  1  0.17113143  0.85756375  0.33518470  1
  Ca  Ca14  1  0.67113143  0.64243625  0.66481530  1
  Ca  Ca15  1  0.32886857  0.35756375  0.66481530  1
  Ca  Ca16  1  0.89024211  0.80528206  0.36977274  1
  Ca  Ca17  1  0.10975789  0.19471794  0.36977274  1
  Ca  Ca18  1  0.60975789  0.30528206  0.63022726  1
  Ca  Ca19  1  0.39024211  0.69471794  0.63022726  1
  Ca  Ca20  1  0.10975789  0.19471794  0.63022726  1
  Ca  Ca21  1  0.89024211  0.80528206  0.63022726  1
  Ca  Ca22  1  0.39024211  0.69471794  0.36977274  1
  Ca  Ca23  1  0.60975789  0.30528206  0.36977274  1
  F  F24  1  0.24667525  0.64013695  0.00000000  1
  F  F25  1  0.75332475  0.35986305  -0.00000000  1
  F  F26  1  0.25332475  0.14013695  -0.00000000  1
  F  F27  1  0.74667525  0.85986305  0.00000000  1
  F  F28  1  0.41563442  0.35255310  0.82128405  1
  F  F29  1  -0.41563442  -0.35255310  0.82128405  1
  F  F30  1  0.08436558  0.85255310  -0.82128405  1
  F  F31  1  0.91563442  0.14744690  -0.82128405  1
  F  F32  1  -0.41563442  -0.35255310  -0.82128405  1
  F  F33  1  0.41563442  0.35255310  -0.82128405  1
  F  F34  1  0.91563442  0.14744690  0.82128405  1
  F  F35  1  0.08436558  0.85255310  0.82128405  1
  F  F36  1  0.00000000  0.50000000  0.50000000  1
  F  F37  1  0.50000000  0.00000000  0.50000000  1
  F  F38  1  0.28810885  0.25597994  0.23497356  1
  F  F39  1  0.71189115  0.74402006  0.23497356  1
  F  F40  1  0.21189115  0.75597994  0.76502644  1
  F  F41  1  0.78810885  0.24402006  0.76502644  1
  F  F42  1  0.71189115  0.74402006  0.76502644  1
  F  F43  1  0.28810885  0.25597994  0.76502644  1
  F  F44  1  0.78810885  0.24402006  0.23497356  1
  F  F45  1  0.21189115  0.75597994  0.23497356  1
  F  F46  1  0.00000000  0.00000000  0.50000000  1
  F  F47  1  0.50000000  0.50000000  0.50000000  1
  F  F48  1  0.38752630  0.19272172  0.93887889  1
  F  F49  1  0.61247370  0.80727828  0.93887889  1
  F  F50  1  0.11247370  0.69272172  0.06112111  1
  F  F51  1  0.88752630  0.30727828  0.06112111  1
  F  F52  1  0.61247370  0.80727828  0.06112111  1
  F  F53  1  0.38752630  0.19272172  0.06112111  1
  F  F54  1  0.88752630  0.30727828  0.93887889  1
  F  F55  1  0.11247370  0.69272172  0.93887889  1
  F  F56  1  0.84771974  0.59538494  0.11595973  1
  F  F57  1  0.15228026  0.40461506  0.11595973  1
  F  F58  1  0.65228026  0.09538494  0.88404027  1
  F  F59  1  0.34771974  0.90461506  0.88404027  1
  F  F60  1  0.15228026  0.40461506  0.88404027  1
  F  F61  1  0.84771974  0.59538494  0.88404027  1
  F  F62  1  0.34771974  0.90461506  0.11595973  1
  F  F63  1  0.65228026  0.09538494  0.11595973  1
  F  F64  1  0.16665768  0.31414034  0.12844171  1
  F  F65  1  0.83334232  0.68585966  0.12844171  1
  F  F66  1  0.33334232  0.81414034  0.87155829  1
  F  F67  1  0.66665768  0.18585966  0.87155829  1
  F  F68  1  0.83334232  0.68585966  0.87155829  1
  F  F69  1  0.16665768  0.31414034  0.87155829  1
  F  F70  1  0.66665768  0.18585966  0.12844171  1
  F  F71  1  0.33334232  0.81414034  0.12844171  1
  F  F72  1  0.23083642  0.68298076  0.71503195  1
  F  F73  1  0.76916358  0.31701924  0.71503195  1
  F  F74  1  0.26916358  0.18298076  0.28496805  1
  F  F75  1  0.73083642  0.81701924  0.28496805  1
  F  F76  1  0.76916358  0.31701924  0.28496805  1
  F  F77  1  0.23083642  0.68298076  0.28496805  1
  F  F78  1  0.73083642  0.81701924  0.71503195  1
  F  F79  1  0.26916358  0.18298076  0.71503195  1
  F  F80  1  0.00000000  0.00000000  0.56886829  1
  F  F81  1  0.50000000  0.50000000  0.43113171  1
  F  F82  1  0.00000000  0.00000000  0.43113171  1
  F  F83  1  0.50000000  0.50000000  0.56886829  1
  F  F84  1  0.28392358  0.71139059  0.00000000  1
  F  F85  1  0.71607642  0.28860941  0.00000000  1
  F  F86  1  0.21607642  0.21139059  0.00000000  1
  F  F87  1  0.78392358  0.78860941  0.00000000  1
  Li  Li88  1  0.68760060  0.72266195  0.00000000  1
  Li  Li89  1  0.31239940  0.27733805  0.00000000  1
  Li  Li90  1  0.81239940  0.22266195  0.00000000  1
  Li  Li91  1  0.18760060  0.77733805  -0.00000000  1
  Li  Li92  1  0.09497301  0.69136348  0.50000000  1
  Li  Li93  1  0.90502699  0.30863652  0.50000000  1
  Li  Li94  1  0.40502699  0.19136348  0.50000000  1
  Li  Li95  1  0.59497301  0.80863652  0.50000000  1
  Li  Li96  1  0.00918598  0.60742262  0.81174806  1
  Li  Li97  1  0.99081402  0.39257738  0.81174806  1
  Li  Li98  1  0.49081402  0.10742262  0.18825194  1
  Li  Li99  1  0.50918598  0.89257738  0.18825194  1
  Li  Li100  1  0.99081402  0.39257738  0.18825194  1
  Li  Li101  1  0.00918598  0.60742262  0.18825194  1
  Li  Li102  1  0.50918598  0.89257738  0.81174806  1
  Li  Li103  1  0.49081402  0.10742262  0.81174806  1
