# generated using pymatgen
data_LiCaF3
_symmetry_space_group_name_H-M   'P 1'
_cell_length_a   8.61646198
_cell_length_b   8.61646198
_cell_length_c   14.01101952
_cell_angle_alpha   90.00000000
_cell_angle_beta   90.00000000
_cell_angle_gamma   120.00000000
_symmetry_Int_Tables_number   1
_chemical_formula_structural   LiCaF3
_chemical_formula_sum   'Li18 Ca18 F54'
_cell_volume   900.86211173
_cell_formula_units_Z   18
loop_
 _symmetry_equiv_pos_site_id
 _symmetry_equiv_pos_as_xyz
  1  'x, y, z'
loop_
 _atom_site_type_symbol
 _atom_site_label
 _atom_site_symmetry_multiplicity
 _atom_site_fract_x
 _atom_site_fract_y
 _atom_site_fract_z
 _atom_site_occupancy
  Ca  Ca0  1  0.19729670  0.00000000  0.10313859  1
  Ca  Ca1  1  0.00000000  0.19729670  0.10313859  1
  Ca  Ca2  1  0.80270330  0.80270330  0.10313859  1
  Ca  Ca3  1  0.19729670  0.00000000  0.89686141  1
  Ca  Ca4  1  0.00000000  0.19729670  0.89686141  1
  Ca  Ca5  1  0.80270330  0.80270330  0.89686141  1
  Ca  Ca6  1  0.80729867  0.00000000  0.35719543  1
  Ca  Ca7  1  0.00000000  0.80729867  0.35719543  1
  Ca  Ca8  1  0.19270133  0.19270133  0.35719543  1
  Ca  Ca9  1  0.80729867  0.00000000  0.64280457  1
  Ca  Ca10  1  0.00000000  0.80729867  0.64280457  1
  Ca  Ca11  1  0.19270133  0.19270133  0.64280457  1
  Ca  Ca12  1  0.22649564  0.50238031  0.00000000  1
  Ca  Ca13  1  0.49761969  0.72411534  -0.00000000  1
  Ca  Ca14  1  0.27588466  0.77350436  -0.00000000  1
  Ca  Ca15  1  0.50238031  0.22649564  -0.00000000  1
  Ca  Ca16  1  0.72411534  0.49761969  0.00000000  1
  Ca  Ca17  1  0.77350436  0.27588466  -0.00000000  1
  F  F18  1  0.15025354  0.00000000  0.78402858  1
  F  F19  1  0.00000000  0.15025354  0.78402858  1
  F  F20  1  0.84974646  0.84974646  0.78402858  1
  F  F21  1  0.15025354  0.00000000  0.21597142  1
  F  F22  1  0.00000000  0.15025354  0.21597142  1
  F  F23  1  0.84974646  0.84974646  0.21597142  1
  F  F24  1  0.10523356  0.34399590  0.36666539  1
  F  F25  1  -0.34399590  -0.23876234  0.36666539  1
  F  F26  1  0.23876234  -0.10523356  0.36666539  1
  F  F27  1  0.10523356  0.34399590  -0.36666539  1
  F  F28  1  -0.34399590  -0.23876234  -0.36666539  1
  F  F29  1  0.23876234  -0.10523356  -0.36666539  1
  F  F30  1  0.34399590  0.10523356  -0.36666539  1
  F  F31  1  -0.23876234  -0.34399590  -0.36666539  1
  F  F32  1  -0.10523356  0.23876234  -0.36666539  1
  F  F33  1  0.34399590  0.10523356  0.36666539  1
  F  F34  1  -0.23876234  -0.34399590  0.36666539  1
  F  F35  1  -0.10523356  0.23876234  0.36666539  1
  F  F36  1  0.19481881  0.27239265  0.92735702  1
  F  F37  1  0.72760735  0.92242617  0.92735702  1
  F  F38  1  0.07757383  0.80518119  0.92735702  1
  F  F39  1  0.19481881  0.27239265  0.07264298  1
  F  F40  1  0.72760735  0.92242617  0.07264298  1
  F  F41  1  0.07757383  0.80518119  0.07264298  1
  F  F42  1  0.27239265  0.19481881  0.07264298  1
  F  F43  1  0.92242617  0.72760735  0.07264298  1
  F  F44  1  0.80518119  0.07757383  0.07264298  1
  F  F45  1  0.27239265  0.19481881  0.92735702  1
  F  F46  1  0.92242617  0.72760735  0.92735702  1
  F  F47  1  0.80518119  0.07757383  0.92735702  1
  F  F48  1  0.76858813  0.13162503  0.40415091  1
  F  F49  1  0.86837497  0.63696309  0.40415091  1
  F  F50  1  0.36303691  0.23141187  0.40415091  1
  F  F51  1  0.76858813  0.13162503  0.59584909  1
  F  F52  1  0.86837497  0.63696309  0.59584909  1
  F  F53  1  0.36303691  0.23141187  0.59584909  1
  F  F54  1  0.13162503  0.76858813  0.59584909  1
  F  F55  1  0.63696309  0.86837497  0.59584909  1
  F  F56  1  0.23141187  0.36303691  0.59584909  1
  F  F57  1  0.13162503  0.76858813  0.40415091  1
  F  F58  1  0.63696309  0.86837497  0.40415091  1
  F  F59  1  0.23141187  0.36303691  0.40415091  1
  F  F60  1  0.80895542  0.46011314  0.14634021  1
  F  F61  1  0.53988686  0.34884227  0.14634021  1
  F  F62  1  0.65115773  0.19104458  0.14634021  1
  F  F63  1  0.80895542  0.46011314  0.85365979  1
  F  F64  1  0.53988686  0.34884227  0.85365979  1
  F  F65  1  0.65115773  0.19104458  0.85365979  1
  F  F66  1  0.46011314  0.80895542  0.85365979  1
  F  F67  1  0.34884227  0.53988686  0.85365979  1
  F  F68  1  0.19104458  0.65115773  0.85365979  1
  F  F69  1  0.46011314  0.80895542  0.14634021  1
  F  F70  1  0.34884227  0.53988686  0.14634021  1
  F  F71  1  0.19104458  0.65115773  0.14634021  1
  Li  Li72  1  0.41311685  0.00000000  0.00000000  1
  Li  Li73  1  0.00000000  0.41311685  -0.00000000  1
  Li  Li74  1  0.58688315  0.58688315  0.00000000  1
  Li  Li75  1  0.00000000  0.00000000  0.14123286  1
  Li  Li76  1  0.00000000  0.00000000  0.85876714  1
  Li  Li77  1  0.30610246  0.53349254  0.42993257  1
  Li  Li78  1  0.46650746  0.77260991  0.42993257  1
  Li  Li79  1  0.22739009  0.69389754  0.42993257  1
  Li  Li80  1  0.30610246  0.53349254  0.57006743  1
  Li  Li81  1  0.46650746  0.77260991  0.57006743  1
  Li  Li82  1  0.22739009  0.69389754  0.57006743  1
  Li  Li83  1  0.53349254  0.30610246  0.57006743  1
  Li  Li84  1  0.77260991  0.46650746  0.57006743  1
  Li  Li85  1  0.69389754  0.22739009  0.57006743  1
  Li  Li86  1  0.53349254  0.30610246  0.42993257  1
  Li  Li87  1  0.77260991  0.46650746  0.42993257  1
  Li  Li88  1  0.69389754  0.22739009  0.42993257  1
  Li  Li89  1  0.00000000  0.00000000  0.50000000  1
