# generated using pymatgen
data_Li4TeF2
_symmetry_space_group_name_H-M   'P 1'
_cell_length_a   13.55655512
_cell_length_b   13.55655512
_cell_length_c   11.82670604
_cell_angle_alpha   90.00000000
_cell_angle_beta   90.00000000
_cell_angle_gamma   120.00000000
_symmetry_Int_Tables_number   1
_chemical_formula_structural   Li4TeF2
_chemical_formula_sum   'Li96 Te24 F48'
_cell_volume   1882.31854972
_cell_formula_units_Z   24
loop_
 _symmetry_equiv_pos_site_id
 _symmetry_equiv_pos_as_xyz
  1  'x, y, z'
loop_
 _atom_site_type_symbol
 _atom_site_label
 _atom_site_symmetry_multiplicity
 _atom_site_fract_x
 _atom_site_fract_y
 _atom_site_fract_z
 _atom_site_occupancy
  F  F0  1  0.00000000  0.00000000  0.16367560  1
  F  F1  1  0.00000000  0.00000000  0.33632440  1
  F  F2  1  0.00000000  0.00000000  0.83632440  1
  F  F3  1  0.00000000  0.00000000  0.66367560  1
  F  F4  1  0.66666667  0.33333333  0.49700893  1
  F  F5  1  0.66666667  0.33333333  0.66965773  1
  F  F6  1  0.66666667  0.33333333  0.16965773  1
  F  F7  1  0.66666667  0.33333333  0.99700893  1
  F  F8  1  0.33333333  0.66666667  0.83034227  1
  F  F9  1  0.33333333  0.66666667  0.00299107  1
  F  F10  1  0.33333333  0.66666667  0.50299107  1
  F  F11  1  0.33333333  0.66666667  0.33034227  1
  F  F12  1  0.72988099  0.59195268  0.96248342  1
  F  F13  1  -0.59195268  0.13792831  0.96248342  1
  F  F14  1  -0.13792831  -0.72988099  0.96248342  1
  F  F15  1  0.59195268  0.72988099  -0.46248342  1
  F  F16  1  0.13792831  -0.59195268  -0.46248342  1
  F  F17  1  -0.72988099  -0.13792831  -0.46248342  1
  F  F18  1  -0.72988099  -0.59195268  -0.96248342  1
  F  F19  1  0.59195268  -0.13792831  -0.96248342  1
  F  F20  1  0.13792831  0.72988099  -0.96248342  1
  F  F21  1  -0.59195268  -0.72988099  1.46248342  1
  F  F22  1  -0.13792831  0.59195268  1.46248342  1
  F  F23  1  0.72988099  0.13792831  1.46248342  1
  F  F24  1  1.39654766  0.92528602  1.29581676  1
  F  F25  1  0.07471398  0.47126164  1.29581676  1
  F  F26  1  0.52873836  -0.39654766  1.29581676  1
  F  F27  1  1.25861935  1.06321432  -0.12915009  1
  F  F28  1  0.80459498  -0.25861935  -0.12915009  1
  F  F29  1  -0.06321432  0.19540502  -0.12915009  1
  F  F30  1  -0.06321432  -0.25861935  -0.62915009  1
  F  F31  1  1.25861935  0.19540502  -0.62915009  1
  F  F32  1  0.80459498  1.06321432  -0.62915009  1
  F  F33  1  0.07471398  -0.39654766  1.79581676  1
  F  F34  1  0.52873836  0.92528602  1.79581676  1
  F  F35  1  1.39654766  0.47126164  1.79581676  1
  F  F36  1  1.06321432  1.25861935  1.62915009  1
  F  F37  1  -0.25861935  0.80459498  1.62915009  1
  F  F38  1  0.19540502  -0.06321432  1.62915009  1
  F  F39  1  0.92528602  1.39654766  0.20418324  1
  F  F40  1  0.47126164  0.07471398  0.20418324  1
  F  F41  1  -0.39654766  0.52873836  0.20418324  1
  F  F42  1  -0.39654766  0.07471398  -0.29581676  1
  F  F43  1  0.92528602  0.52873836  -0.29581676  1
  F  F44  1  0.47126164  1.39654766  -0.29581676  1
  F  F45  1  -0.25861935  -0.06321432  2.12915009  1
  F  F46  1  0.19540502  1.25861935  2.12915009  1
  F  F47  1  1.06321432  0.80459498  2.12915009  1
  Li  Li48  1  0.60192170  0.16343691  0.76252549  1
  Li  Li49  1  0.83656309  0.43848479  0.76252549  1
  Li  Li50  1  0.56151521  0.39807830  0.76252549  1
  Li  Li51  1  0.16343691  0.60192170  0.73747451  1
  Li  Li52  1  0.43848479  0.83656309  0.73747451  1
  Li  Li53  1  0.39807830  0.56151521  0.73747451  1
  Li  Li54  1  0.39807830  0.83656309  0.23747451  1
  Li  Li55  1  0.16343691  0.56151521  0.23747451  1
  Li  Li56  1  0.43848479  0.60192170  0.23747451  1
  Li  Li57  1  0.83656309  0.39807830  0.26252549  1
  Li  Li58  1  0.56151521  0.16343691  0.26252549  1
  Li  Li59  1  0.60192170  0.43848479  0.26252549  1
  Li  Li60  1  0.26858837  0.49677024  0.09585882  1
  Li  Li61  1  0.50322976  0.77181813  0.09585882  1
  Li  Li62  1  0.22818187  0.73141163  0.09585882  1
  Li  Li63  1  0.83010358  0.93525504  0.07080784  1
  Li  Li64  1  0.10515146  0.16989642  0.07080784  1
  Li  Li65  1  0.06474496  0.89484854  0.07080784  1
  Li  Li66  1  0.06474496  0.16989642  0.57080784  1
  Li  Li67  1  0.83010358  0.89484854  0.57080784  1
  Li  Li68  1  0.10515146  0.93525504  0.57080784  1
  Li  Li69  1  0.50322976  0.73141163  0.59585882  1
  Li  Li70  1  0.22818187  0.49677024  0.59585882  1
  Li  Li71  1  0.26858837  0.77181813  0.59585882  1
  Li  Li72  1  0.93525504  0.83010358  0.42919216  1
  Li  Li73  1  0.16989642  0.10515146  0.42919216  1
  Li  Li74  1  0.89484854  0.06474496  0.42919216  1
  Li  Li75  1  0.49677024  0.26858837  0.40414118  1
  Li  Li76  1  0.77181813  0.50322976  0.40414118  1
  Li  Li77  1  0.73141163  0.22818187  0.40414118  1
  Li  Li78  1  0.73141163  0.50322976  0.90414118  1
  Li  Li79  1  0.49677024  0.22818187  0.90414118  1
  Li  Li80  1  0.77181813  0.26858837  0.90414118  1
  Li  Li81  1  0.16989642  0.06474496  0.92919216  1
  Li  Li82  1  0.89484854  0.83010358  0.92919216  1
  Li  Li83  1  0.93525504  0.10515146  0.92919216  1
  Li  Li84  1  0.00000000  0.00000000  0.25000000  1
  Li  Li85  1  0.00000000  0.00000000  0.75000000  1
  Li  Li86  1  0.66666667  0.33333333  0.58333333  1
  Li  Li87  1  0.66666667  0.33333333  0.08333333  1
  Li  Li88  1  0.33333333  0.66666667  0.91666667  1
  Li  Li89  1  0.33333333  0.66666667  0.41666667  1
  Li  Li90  1  0.45937771  0.06123318  0.42599169  1
  Li  Li91  1  0.93876682  0.39814453  0.42599169  1
  Li  Li92  1  0.60185547  0.54062229  0.42599169  1
  Li  Li93  1  0.06123318  0.45937771  0.07400831  1
  Li  Li94  1  0.39814453  0.93876682  0.07400831  1
  Li  Li95  1  0.54062229  0.60185547  0.07400831  1
  Li  Li96  1  0.54062229  0.93876682  0.57400831  1
  Li  Li97  1  0.06123318  0.60185547  0.57400831  1
  Li  Li98  1  0.39814453  0.45937771  0.57400831  1
  Li  Li99  1  0.93876682  0.54062229  0.92599169  1
  Li  Li100  1  0.60185547  0.06123318  0.92599169  1
  Li  Li101  1  0.45937771  0.39814453  0.92599169  1
  Li  Li102  1  0.12604437  0.39456651  0.75932503  1
  Li  Li103  1  0.60543349  0.73147786  0.75932503  1
  Li  Li104  1  0.26852214  0.87395563  0.75932503  1
  Li  Li105  1  0.72789985  0.79271104  0.40734164  1
  Li  Li106  1  0.06481119  0.27210015  0.40734164  1
  Li  Li107  1  0.20728896  0.93518881  0.40734164  1
  Li  Li108  1  0.20728896  0.27210015  0.90734164  1
  Li  Li109  1  0.72789985  0.93518881  0.90734164  1
  Li  Li110  1  0.06481119  0.79271104  0.90734164  1
  Li  Li111  1  0.60543349  0.87395563  0.25932503  1
  Li  Li112  1  0.26852214  0.39456651  0.25932503  1
  Li  Li113  1  0.12604437  0.73147786  0.25932503  1
  Li  Li114  1  0.79271104  0.72789985  0.09265836  1
  Li  Li115  1  0.27210015  0.06481119  0.09265836  1
  Li  Li116  1  0.93518881  0.20728896  0.09265836  1
  Li  Li117  1  0.39456651  0.12604437  0.74067497  1
  Li  Li118  1  0.73147786  0.60543349  0.74067497  1
  Li  Li119  1  0.87395563  0.26852214  0.74067497  1
  Li  Li120  1  0.87395563  0.60543349  0.24067497  1
  Li  Li121  1  0.39456651  0.26852214  0.24067497  1
  Li  Li122  1  0.73147786  0.12604437  0.24067497  1
  Li  Li123  1  0.27210015  0.20728896  0.59265836  1
  Li  Li124  1  0.93518881  0.72789985  0.59265836  1
  Li  Li125  1  0.79271104  0.06481119  0.59265836  1
  Li  Li126  1  0.50000000  0.00000000  -0.00000000  1
  Li  Li127  1  0.00000000  0.50000000  0.00000000  1
  Li  Li128  1  0.50000000  0.50000000  0.00000000  1
  Li  Li129  1  0.00000000  0.50000000  0.50000000  1
  Li  Li130  1  0.50000000  0.00000000  0.50000000  1
  Li  Li131  1  0.50000000  0.50000000  0.50000000  1
  Li  Li132  1  0.16666667  0.33333333  0.33333333  1
  Li  Li133  1  0.66666667  0.83333333  0.33333333  1
  Li  Li134  1  0.16666667  0.83333333  0.33333333  1
  Li  Li135  1  0.66666667  0.83333333  0.83333333  1
  Li  Li136  1  0.16666667  0.33333333  0.83333333  1
  Li  Li137  1  0.16666667  0.83333333  0.83333333  1
  Li  Li138  1  0.83333333  0.66666667  0.66666667  1
  Li  Li139  1  0.33333333  0.16666667  0.66666667  1
  Li  Li140  1  0.83333333  0.16666667  0.66666667  1
  Li  Li141  1  0.33333333  0.16666667  0.16666667  1
  Li  Li142  1  0.83333333  0.66666667  0.16666667  1
  Li  Li143  1  0.83333333  0.16666667  0.16666667  1
  Te  Te144  1  0.47386838  0.00000000  0.25000000  1
  Te  Te145  1  0.00000000  0.47386838  0.25000000  1
  Te  Te146  1  0.52613162  0.52613162  0.25000000  1
  Te  Te147  1  0.52613162  0.00000000  0.75000000  1
  Te  Te148  1  0.00000000  0.52613162  0.75000000  1
  Te  Te149  1  0.47386838  0.47386838  0.75000000  1
  Te  Te150  1  0.14053505  0.33333333  0.58333333  1
  Te  Te151  1  0.66666667  0.80720171  0.58333333  1
  Te  Te152  1  0.19279829  0.85946495  0.58333333  1
  Te  Te153  1  0.19279829  0.33333333  0.08333333  1
  Te  Te154  1  0.66666667  0.85946495  0.08333333  1
  Te  Te155  1  0.14053505  0.80720171  0.08333333  1
  Te  Te156  1  0.80720171  0.66666667  0.91666667  1
  Te  Te157  1  0.33333333  0.14053505  0.91666667  1
  Te  Te158  1  0.85946495  0.19279829  0.91666667  1
  Te  Te159  1  0.85946495  0.66666667  0.41666667  1
  Te  Te160  1  0.33333333  0.19279829  0.41666667  1
  Te  Te161  1  0.80720171  0.14053505  0.41666667  1
  Te  Te162  1  0.00000000  0.00000000  0.00000000  1
  Te  Te163  1  0.00000000  0.00000000  0.50000000  1
  Te  Te164  1  0.66666667  0.33333333  0.33333333  1
  Te  Te165  1  0.66666667  0.33333333  0.83333333  1
  Te  Te166  1  0.33333333  0.66666667  0.66666667  1
  Te  Te167  1  0.33333333  0.66666667  0.16666667  1
