# generated using pymatgen
data_LiF
_symmetry_space_group_name_H-M   'P 1'
_cell_length_a   12.51652543
_cell_length_b   12.51652543
_cell_length_c   17.66485030
_cell_angle_alpha   90.00000000
_cell_angle_beta   90.00000000
_cell_angle_gamma   120.00000000
_symmetry_Int_Tables_number   1
_chemical_formula_structural   LiF
_chemical_formula_sum   'Li108 F108'
_cell_volume   2396.66958959
_cell_formula_units_Z   108
loop_
 _symmetry_equiv_pos_site_id
 _symmetry_equiv_pos_as_xyz
  1  'x, y, z'
loop_
 _atom_site_type_symbol
 _atom_site_label
 _atom_site_symmetry_multiplicity
 _atom_site_fract_x
 _atom_site_fract_y
 _atom_site_fract_z
 _atom_site_occupancy
  F  F0  1  0.15341684  0.62721299  0.53222808  1
  F  F1  1  -0.62721299  -0.47379615  0.53222808  1
  F  F2  1  0.47379615  -0.15341684  0.53222808  1
  F  F3  1  0.62721299  0.15341684  -0.03222808  1
  F  F4  1  -0.47379615  -0.62721299  -0.03222808  1
  F  F5  1  -0.15341684  0.47379615  -0.03222808  1
  F  F6  1  -0.15341684  -0.62721299  -0.53222808  1
  F  F7  1  0.62721299  0.47379615  -0.53222808  1
  F  F8  1  -0.47379615  0.15341684  -0.53222808  1
  F  F9  1  -0.62721299  -0.15341684  1.03222808  1
  F  F10  1  0.47379615  0.62721299  1.03222808  1
  F  F11  1  0.15341684  -0.47379615  1.03222808  1
  F  F12  1  0.82008351  0.96054633  0.86556142  1
  F  F13  1  0.03945367  -0.14046282  0.86556142  1
  F  F14  1  1.14046282  0.17991649  0.86556142  1
  F  F15  1  1.29387966  0.48675017  0.30110525  1
  F  F16  1  0.19287051  -0.29387966  0.30110525  1
  F  F17  1  0.51324983  0.80712949  0.30110525  1
  F  F18  1  0.51324983  -0.29387966  -0.19889475  1
  F  F19  1  1.29387966  0.80712949  -0.19889475  1
  F  F20  1  0.19287051  0.48675017  -0.19889475  1
  F  F21  1  0.03945367  0.17991649  1.36556142  1
  F  F22  1  1.14046282  0.96054633  1.36556142  1
  F  F23  1  0.82008351  -0.14046282  1.36556142  1
  F  F24  1  0.48675017  1.29387966  1.19889475  1
  F  F25  1  -0.29387966  0.19287051  1.19889475  1
  F  F26  1  0.80712949  0.51324983  1.19889475  1
  F  F27  1  0.96054633  0.82008351  0.63443858  1
  F  F28  1  -0.14046282  0.03945367  0.63443858  1
  F  F29  1  0.17991649  1.14046282  0.63443858  1
  F  F30  1  0.17991649  0.03945367  0.13443858  1
  F  F31  1  0.96054633  1.14046282  0.13443858  1
  F  F32  1  -0.14046282  0.82008351  0.13443858  1
  F  F33  1  -0.29387966  0.51324983  1.69889475  1
  F  F34  1  0.80712949  1.29387966  1.69889475  1
  F  F35  1  0.48675017  0.19287051  1.69889475  1
  F  F36  1  0.50000000  0.00000000  0.00000000  1
  F  F37  1  0.00000000  0.50000000  0.00000000  1
  F  F38  1  0.50000000  0.50000000  0.00000000  1
  F  F39  1  0.00000000  0.50000000  0.50000000  1
  F  F40  1  0.50000000  0.00000000  0.50000000  1
  F  F41  1  0.50000000  0.50000000  0.50000000  1
  F  F42  1  0.16666667  0.33333333  0.33333333  1
  F  F43  1  0.66666667  0.83333333  0.33333333  1
  F  F44  1  0.16666667  0.83333333  0.33333333  1
  F  F45  1  0.66666667  0.83333333  0.83333333  1
  F  F46  1  0.16666667  0.33333333  0.83333333  1
  F  F47  1  0.16666667  0.83333333  0.83333333  1
  F  F48  1  0.83333333  0.66666667  0.66666667  1
  F  F49  1  0.33333333  0.16666667  0.66666667  1
  F  F50  1  0.83333333  0.16666667  0.66666667  1
  F  F51  1  0.33333333  0.16666667  0.16666667  1
  F  F52  1  0.83333333  0.66666667  0.16666667  1
  F  F53  1  0.83333333  0.16666667  0.16666667  1
  F  F54  1  0.80868318  0.62823996  0.30601704  1
  F  F55  1  0.37176004  0.18044321  0.30601704  1
  F  F56  1  0.81955679  0.19131682  0.30601704  1
  F  F57  1  0.62823996  0.80868318  0.19398296  1
  F  F58  1  0.18044321  0.37176004  0.19398296  1
  F  F59  1  0.19131682  0.81955679  0.19398296  1
  F  F60  1  0.19131682  0.37176004  0.69398296  1
  F  F61  1  0.62823996  0.81955679  0.69398296  1
  F  F62  1  0.18044321  0.80868318  0.69398296  1
  F  F63  1  0.37176004  0.19131682  0.80601704  1
  F  F64  1  0.81955679  0.62823996  0.80601704  1
  F  F65  1  0.80868318  0.18044321  0.80601704  1
  F  F66  1  0.47534984  0.96157330  0.63935037  1
  F  F67  1  0.03842670  0.51377655  0.63935037  1
  F  F68  1  0.48622345  0.52465016  0.63935037  1
  F  F69  1  0.29490663  0.14201651  0.52731630  1
  F  F70  1  0.84710988  0.70509337  0.52731630  1
  F  F71  1  0.85798349  0.15289012  0.52731630  1
  F  F72  1  0.85798349  0.70509337  0.02731630  1
  F  F73  1  0.29490663  0.15289012  0.02731630  1
  F  F74  1  0.84710988  0.14201651  0.02731630  1
  F  F75  1  0.03842670  0.52465016  0.13935037  1
  F  F76  1  0.48622345  0.96157330  0.13935037  1
  F  F77  1  0.47534984  0.51377655  0.13935037  1
  F  F78  1  0.14201651  0.29490663  0.97268370  1
  F  F79  1  0.70509337  0.84710988  0.97268370  1
  F  F80  1  0.15289012  0.85798349  0.97268370  1
  F  F81  1  0.96157330  0.47534984  0.86064963  1
  F  F82  1  0.51377655  0.03842670  0.86064963  1
  F  F83  1  0.52465016  0.48622345  0.86064963  1
  F  F84  1  0.52465016  0.03842670  0.36064963  1
  F  F85  1  0.96157330  0.48622345  0.36064963  1
  F  F86  1  0.51377655  0.47534984  0.36064963  1
  F  F87  1  0.70509337  0.85798349  0.47268370  1
  F  F88  1  0.15289012  0.29490663  0.47268370  1
  F  F89  1  0.14201651  0.84710988  0.47268370  1
  F  F90  1  0.53901893  0.00000000  0.25000000  1
  F  F91  1  0.00000000  0.53901893  0.25000000  1
  F  F92  1  0.46098107  0.46098107  0.25000000  1
  F  F93  1  0.46098107  0.00000000  0.75000000  1
  F  F94  1  0.00000000  0.46098107  0.75000000  1
  F  F95  1  0.53901893  0.53901893  0.75000000  1
  F  F96  1  0.20568560  0.33333333  0.58333333  1
  F  F97  1  0.66666667  0.87235226  0.58333333  1
  F  F98  1  0.12764774  0.79431440  0.58333333  1
  F  F99  1  0.12764774  0.33333333  0.08333333  1
  F  F100  1  0.66666667  0.79431440  0.08333333  1
  F  F101  1  0.20568560  0.87235226  0.08333333  1
  F  F102  1  0.87235226  0.66666667  0.91666667  1
  F  F103  1  0.33333333  0.20568560  0.91666667  1
  F  F104  1  0.79431440  0.12764774  0.91666667  1
  F  F105  1  0.79431440  0.66666667  0.41666667  1
  F  F106  1  0.33333333  0.12764774  0.41666667  1
  F  F107  1  0.87235226  0.20568560  0.41666667  1
  Li  Li108  1  0.37584374  0.48332219  0.47240861  1
  Li  Li109  1  0.51667781  0.89252155  0.47240861  1
  Li  Li110  1  0.10747845  0.62415626  0.47240861  1
  Li  Li111  1  0.48332219  0.37584374  0.02759139  1
  Li  Li112  1  0.89252155  0.51667781  0.02759139  1
  Li  Li113  1  0.62415626  0.10747845  0.02759139  1
  Li  Li114  1  0.62415626  0.51667781  0.52759139  1
  Li  Li115  1  0.48332219  0.10747845  0.52759139  1
  Li  Li116  1  0.89252155  0.37584374  0.52759139  1
  Li  Li117  1  0.51667781  0.62415626  0.97240861  1
  Li  Li118  1  0.10747845  0.48332219  0.97240861  1
  Li  Li119  1  0.37584374  0.89252155  0.97240861  1
  Li  Li120  1  0.04251041  0.81665552  0.80574194  1
  Li  Li121  1  0.18334448  0.22585489  0.80574194  1
  Li  Li122  1  0.77414511  0.95748959  0.80574194  1
  Li  Li123  1  0.14998886  0.70917708  0.36092473  1
  Li  Li124  1  0.55918822  0.85001114  0.36092473  1
  Li  Li125  1  0.29082292  0.44081178  0.36092473  1
  Li  Li126  1  0.29082292  0.85001114  0.86092473  1
  Li  Li127  1  0.14998886  0.44081178  0.86092473  1
  Li  Li128  1  0.55918822  0.70917708  0.86092473  1
  Li  Li129  1  0.18334448  0.95748959  0.30574194  1
  Li  Li130  1  0.77414511  0.81665552  0.30574194  1
  Li  Li131  1  0.04251041  0.22585489  0.30574194  1
  Li  Li132  1  0.70917708  0.14998886  0.13907527  1
  Li  Li133  1  0.85001114  0.55918822  0.13907527  1
  Li  Li134  1  0.44081178  0.29082292  0.13907527  1
  Li  Li135  1  0.81665552  0.04251041  0.69425806  1
  Li  Li136  1  0.22585489  0.18334448  0.69425806  1
  Li  Li137  1  0.95748959  0.77414511  0.69425806  1
  Li  Li138  1  0.95748959  0.18334448  0.19425806  1
  Li  Li139  1  0.81665552  0.77414511  0.19425806  1
  Li  Li140  1  0.22585489  0.04251041  0.19425806  1
  Li  Li141  1  0.85001114  0.29082292  0.63907527  1
  Li  Li142  1  0.44081178  0.14998886  0.63907527  1
  Li  Li143  1  0.70917708  0.55918822  0.63907527  1
  Li  Li144  1  0.00000000  0.00000000  0.87242958  1
  Li  Li145  1  0.00000000  0.00000000  0.62757042  1
  Li  Li146  1  0.00000000  0.00000000  0.12757042  1
  Li  Li147  1  0.00000000  0.00000000  0.37242958  1
  Li  Li148  1  0.66666667  0.33333333  0.20576291  1
  Li  Li149  1  0.66666667  0.33333333  0.96090376  1
  Li  Li150  1  0.66666667  0.33333333  0.46090376  1
  Li  Li151  1  0.66666667  0.33333333  0.70576291  1
  Li  Li152  1  0.33333333  0.66666667  0.53909624  1
  Li  Li153  1  0.33333333  0.66666667  0.29423709  1
  Li  Li154  1  0.33333333  0.66666667  0.79423709  1
  Li  Li155  1  0.33333333  0.66666667  0.03909624  1
  Li  Li156  1  0.13550791  0.00000000  0.25000000  1
  Li  Li157  1  0.00000000  0.13550791  0.25000000  1
  Li  Li158  1  0.86449209  0.86449209  0.25000000  1
  Li  Li159  1  0.86449209  -0.00000000  0.75000000  1
  Li  Li160  1  0.00000000  0.86449209  0.75000000  1
  Li  Li161  1  0.13550791  0.13550791  0.75000000  1
  Li  Li162  1  0.80217458  0.33333333  0.58333333  1
  Li  Li163  1  0.66666667  0.46884124  0.58333333  1
  Li  Li164  1  0.53115876  0.19782542  0.58333333  1
  Li  Li165  1  0.53115876  0.33333333  0.08333333  1
  Li  Li166  1  0.66666667  0.19782542  0.08333333  1
  Li  Li167  1  0.80217458  0.46884124  0.08333333  1
  Li  Li168  1  0.46884124  0.66666667  0.91666667  1
  Li  Li169  1  0.33333333  0.80217458  0.91666667  1
  Li  Li170  1  0.19782542  0.53115876  0.91666667  1
  Li  Li171  1  0.19782542  0.66666667  0.41666667  1
  Li  Li172  1  0.33333333  0.53115876  0.41666667  1
  Li  Li173  1  0.46884124  0.80217458  0.41666667  1
  Li  Li174  1  0.88242144  0.58393901  0.65532056  1
  Li  Li175  1  0.41606099  0.29848243  0.65532056  1
  Li  Li176  1  0.70151757  0.11757856  0.65532056  1
  Li  Li177  1  0.58393901  0.88242144  0.84467944  1
  Li  Li178  1  0.29848243  0.41606099  0.84467944  1
  Li  Li179  1  0.11757856  0.70151757  0.84467944  1
  Li  Li180  1  0.11757856  0.41606099  0.34467944  1
  Li  Li181  1  0.58393901  0.70151757  0.34467944  1
  Li  Li182  1  0.29848243  0.88242144  0.34467944  1
  Li  Li183  1  0.41606099  0.11757856  0.15532056  1
  Li  Li184  1  0.70151757  0.58393901  0.15532056  1
  Li  Li185  1  0.88242144  0.29848243  0.15532056  1
  Li  Li186  1  0.54908811  0.91727234  0.98865389  1
  Li  Li187  1  0.08272766  0.63181576  0.98865389  1
  Li  Li188  1  0.36818424  0.45091189  0.98865389  1
  Li  Li189  1  0.25060568  0.21575477  0.17801277  1
  Li  Li190  1  0.96514910  0.74939432  0.17801277  1
  Li  Li191  1  0.78424523  0.03485090  0.17801277  1
  Li  Li192  1  0.78424523  0.74939432  0.67801277  1
  Li  Li193  1  0.25060568  0.03485090  0.67801277  1
  Li  Li194  1  0.96514910  0.21575477  0.67801277  1
  Li  Li195  1  0.08272766  0.45091189  0.48865389  1
  Li  Li196  1  0.36818424  0.91727234  0.48865389  1
  Li  Li197  1  0.54908811  0.63181576  0.48865389  1
  Li  Li198  1  0.21575477  0.25060568  0.32198723  1
  Li  Li199  1  0.74939432  0.96514910  0.32198723  1
  Li  Li200  1  0.03485090  0.78424523  0.32198723  1
  Li  Li201  1  0.91727234  0.54908811  0.51134611  1
  Li  Li202  1  0.63181576  0.08272766  0.51134611  1
  Li  Li203  1  0.45091189  0.36818424  0.51134611  1
  Li  Li204  1  0.45091189  0.08272766  0.01134611  1
  Li  Li205  1  0.91727234  0.36818424  0.01134611  1
  Li  Li206  1  0.63181576  0.54908811  0.01134611  1
  Li  Li207  1  0.74939432  0.78424523  0.82198723  1
  Li  Li208  1  0.03485090  0.25060568  0.82198723  1
  Li  Li209  1  0.21575477  0.96514910  0.82198723  1
  Li  Li210  1  0.00000000  0.00000000  0.00000000  1
  Li  Li211  1  0.00000000  0.00000000  0.50000000  1
  Li  Li212  1  0.66666667  0.33333333  0.33333333  1
  Li  Li213  1  0.66666667  0.33333333  0.83333333  1
  Li  Li214  1  0.33333333  0.66666667  0.66666667  1
  Li  Li215  1  0.33333333  0.66666667  0.16666667  1
