# generated using pymatgen
data_LiF
_symmetry_space_group_name_H-M   'P 1'
_cell_length_a   5.93232058
_cell_length_b   9.15501193
_cell_length_c   11.86348259
_cell_angle_alpha   90.00000000
_cell_angle_beta   90.00000000
_cell_angle_gamma   90.00000000
_symmetry_Int_Tables_number   1
_chemical_formula_structural   LiF
_chemical_formula_sum   'Li24 F24'
_cell_volume   644.31126382
_cell_formula_units_Z   24
loop_
 _symmetry_equiv_pos_site_id
 _symmetry_equiv_pos_as_xyz
  1  'x, y, z'
loop_
 _atom_site_type_symbol
 _atom_site_label
 _atom_site_symmetry_multiplicity
 _atom_site_fract_x
 _atom_site_fract_y
 _atom_site_fract_z
 _atom_site_occupancy
  F  F0  1  0.00000000  0.00000000  0.50000000  1
  F  F1  1  0.50000000  0.00000000  0.00000000  1
  F  F2  1  0.00000000  0.50000000  0.50000000  1
  F  F3  1  0.50000000  0.50000000  0.00000000  1
  F  F4  1  0.05780790  0.25000000  0.68240197  1
  F  F5  1  0.44219210  0.75000000  0.18240197  1
  F  F6  1  0.94219210  0.75000000  0.31759803  1
  F  F7  1  0.55780790  0.25000000  0.81759803  1
  F  F8  1  0.63297029  0.11588872  0.37828052  1
  F  F9  1  0.86702971  0.88411128  0.87828052  1
  F  F10  1  0.36702971  0.61588872  0.62171948  1
  F  F11  1  0.13297029  0.38411128  0.12171948  1
  F  F12  1  0.36702971  0.88411128  0.62171948  1
  F  F13  1  0.13297029  0.11588872  0.12171948  1
  F  F14  1  0.63297029  0.38411128  0.37828052  1
  F  F15  1  0.86702971  0.61588872  0.87828052  1
  F  F16  1  0.71451930  0.32286224  0.84205813  1
  F  F17  1  0.78548070  0.67713776  0.34205813  1
  F  F18  1  0.28548070  0.82286224  0.15794187  1
  F  F19  1  0.21451930  0.17713776  0.65794187  1
  F  F20  1  0.28548070  0.67713776  0.15794187  1
  F  F21  1  0.21451930  0.32286224  0.65794187  1
  F  F22  1  0.71451930  0.17713776  0.84205813  1
  F  F23  1  0.78548070  0.82286224  0.34205813  1
  Li  Li24  1  0.75089042  0.25000000  0.94346913  1
  Li  Li25  1  0.74910958  0.75000000  0.44346913  1
  Li  Li26  1  0.24910958  0.75000000  0.05653087  1
  Li  Li27  1  0.25089042  0.25000000  0.55653087  1
  Li  Li28  1  0.28172089  0.25000000  0.70813222  1
  Li  Li29  1  0.21827911  0.75000000  0.20813222  1
  Li  Li30  1  0.71827911  0.75000000  0.29186778  1
  Li  Li31  1  0.78172089  0.25000000  0.79186778  1
  Li  Li32  1  0.19846452  0.25000000  0.81131960  1
  Li  Li33  1  0.30153548  0.75000000  0.31131960  1
  Li  Li34  1  0.80153548  0.75000000  0.18868040  1
  Li  Li35  1  0.69846452  0.25000000  0.68868040  1
  Li  Li36  1  0.97889128  0.38484666  0.72012982  1
  Li  Li37  1  -0.47889128  -0.38484666  1.22012982  1
  Li  Li38  1  -0.97889128  0.88484666  -0.72012982  1
  Li  Li39  1  1.47889128  0.11515334  -0.22012982  1
  Li  Li40  1  -0.97889128  -0.38484666  -0.72012982  1
  Li  Li41  1  1.47889128  0.38484666  -0.22012982  1
  Li  Li42  1  0.97889128  0.11515334  0.72012982  1
  Li  Li43  1  -0.47889128  0.88484666  1.22012982  1
  Li  Li44  1  0.00000000  0.00000000  0.00000000  1
  Li  Li45  1  0.50000000  0.00000000  0.50000000  1
  Li  Li46  1  0.00000000  0.50000000  0.00000000  1
  Li  Li47  1  0.50000000  0.50000000  0.50000000  1
