# generated using pymatgen
data_LiF
_symmetry_space_group_name_H-M   'P 1'
_cell_length_a   10.79152739
_cell_length_b   10.79152739
_cell_length_c   10.79152739
_cell_angle_alpha   90.00000000
_cell_angle_beta   90.00000000
_cell_angle_gamma   90.00000000
_symmetry_Int_Tables_number   1
_chemical_formula_structural   LiF
_chemical_formula_sum   'Li64 F64'
_cell_volume   1256.74958871
_cell_formula_units_Z   64
loop_
 _symmetry_equiv_pos_site_id
 _symmetry_equiv_pos_as_xyz
  1  'x, y, z'
loop_
 _atom_site_type_symbol
 _atom_site_label
 _atom_site_symmetry_multiplicity
 _atom_site_fract_x
 _atom_site_fract_y
 _atom_site_fract_z
 _atom_site_occupancy
  F  F0  1  0.12500000  0.12500000  0.12500000  1
  F  F1  1  0.37500000  0.87500000  0.62500000  1
  F  F2  1  0.87500000  0.62500000  0.37500000  1
  F  F3  1  0.62500000  0.37500000  0.87500000  1
  F  F4  1  0.62500000  0.62500000  0.62500000  1
  F  F5  1  0.87500000  0.37500000  0.12500000  1
  F  F6  1  0.37500000  0.12500000  0.87500000  1
  F  F7  1  0.12500000  0.87500000  0.37500000  1
  F  F8  1  0.76737115  0.11207917  0.73508288  1
  F  F9  1  -0.26737115  -0.11207917  1.23508288  1
  F  F10  1  -0.76737115  0.61207917  -0.23508288  1
  F  F11  1  1.26737115  0.38792083  -0.73508288  1
  F  F12  1  0.73508288  0.76737115  0.11207917  1
  F  F13  1  1.23508288  -0.26737115  -0.11207917  1
  F  F14  1  -0.23508288  -0.76737115  0.61207917  1
  F  F15  1  -0.73508288  1.26737115  0.38792083  1
  F  F16  1  0.11207917  0.73508288  0.76737115  1
  F  F17  1  -0.11207917  1.23508288  -0.26737115  1
  F  F18  1  0.61207917  -0.23508288  -0.76737115  1
  F  F19  1  0.38792083  -0.73508288  1.26737115  1
  F  F20  1  0.86207917  1.01737115  -0.48508288  1
  F  F21  1  0.63792083  -0.01737115  0.01491712  1
  F  F22  1  0.36207917  -0.51737115  1.48508288  1
  F  F23  1  0.13792083  1.51737115  0.98508288  1
  F  F24  1  1.51737115  0.98508288  0.13792083  1
  F  F25  1  -0.51737115  1.48508288  0.36207917  1
  F  F26  1  -0.01737115  0.01491712  0.63792083  1
  F  F27  1  1.01737115  -0.48508288  0.86207917  1
  F  F28  1  1.48508288  0.36207917  -0.51737115  1
  F  F29  1  0.98508288  0.13792083  1.51737115  1
  F  F30  1  -0.48508288  0.86207917  1.01737115  1
  F  F31  1  0.01491712  0.63792083  -0.01737115  1
  F  F32  1  1.26737115  0.61207917  1.23508288  1
  F  F33  1  0.23262885  0.38792083  1.73508288  1
  F  F34  1  -0.26737115  1.11207917  0.26491712  1
  F  F35  1  1.76737115  0.88792083  -0.23508288  1
  F  F36  1  1.23508288  1.26737115  0.61207917  1
  F  F37  1  1.73508288  0.23262885  0.38792083  1
  F  F38  1  0.26491712  -0.26737115  1.11207917  1
  F  F39  1  -0.23508288  1.76737115  0.88792083  1
  F  F40  1  0.61207917  1.23508288  1.26737115  1
  F  F41  1  0.38792083  1.73508288  0.23262885  1
  F  F42  1  1.11207917  0.26491712  -0.26737115  1
  F  F43  1  0.88792083  -0.23508288  1.76737115  1
  F  F44  1  1.36207917  1.51737115  0.01491712  1
  F  F45  1  1.13792083  0.48262885  0.51491712  1
  F  F46  1  0.86207917  -0.01737115  1.98508288  1
  F  F47  1  0.63792083  2.01737115  1.48508288  1
  F  F48  1  2.01737115  1.48508288  0.63792083  1
  F  F49  1  -0.01737115  1.98508288  0.86207917  1
  F  F50  1  0.48262885  0.51491712  1.13792083  1
  F  F51  1  1.51737115  0.01491712  1.36207917  1
  F  F52  1  1.98508288  0.86207917  -0.01737115  1
  F  F53  1  1.48508288  0.63792083  2.01737115  1
  F  F54  1  0.01491712  1.36207917  1.51737115  1
  F  F55  1  0.51491712  1.13792083  0.48262885  1
  F  F56  1  0.87500000  0.87500000  0.87500000  1
  F  F57  1  0.62500000  0.12500000  0.37500000  1
  F  F58  1  0.12500000  0.37500000  0.62500000  1
  F  F59  1  0.37500000  0.62500000  0.12500000  1
  F  F60  1  0.37500000  0.37500000  0.37500000  1
  F  F61  1  0.12500000  0.62500000  0.87500000  1
  F  F62  1  0.62500000  0.87500000  0.12500000  1
  F  F63  1  0.87500000  0.12500000  0.62500000  1
  Li  Li64  1  0.90293621  0.27763970  0.56073842  1
  Li  Li65  1  0.59706379  0.72236030  0.06073842  1
  Li  Li66  1  0.09706379  0.77763970  0.93926158  1
  Li  Li67  1  0.40293621  0.22236030  0.43926158  1
  Li  Li68  1  0.56073842  0.90293621  0.27763970  1
  Li  Li69  1  0.06073842  0.59706379  0.72236030  1
  Li  Li70  1  0.93926158  0.09706379  0.77763970  1
  Li  Li71  1  0.43926158  0.40293621  0.22236030  1
  Li  Li72  1  0.27763970  0.56073842  0.90293621  1
  Li  Li73  1  0.72236030  0.06073842  0.59706379  1
  Li  Li74  1  0.77763970  0.93926158  0.09706379  1
  Li  Li75  1  0.22236030  0.43926158  0.40293621  1
  Li  Li76  1  0.02763970  0.15293621  0.68926158  1
  Li  Li77  1  0.47236030  0.84706379  0.18926158  1
  Li  Li78  1  0.52763970  0.34706379  0.31073842  1
  Li  Li79  1  0.97236030  0.65293621  0.81073842  1
  Li  Li80  1  0.65293621  0.81073842  0.97236030  1
  Li  Li81  1  0.34706379  0.31073842  0.52763970  1
  Li  Li82  1  0.84706379  0.18926158  0.47236030  1
  Li  Li83  1  0.15293621  0.68926158  0.02763970  1
  Li  Li84  1  0.31073842  0.52763970  0.34706379  1
  Li  Li85  1  0.81073842  0.97236030  0.65293621  1
  Li  Li86  1  0.68926158  0.02763970  0.15293621  1
  Li  Li87  1  0.18926158  0.47236030  0.84706379  1
  Li  Li88  1  0.40293621  0.77763970  0.06073842  1
  Li  Li89  1  0.09706379  0.22236030  0.56073842  1
  Li  Li90  1  0.59706379  0.27763970  0.43926158  1
  Li  Li91  1  0.90293621  0.72236030  0.93926158  1
  Li  Li92  1  0.06073842  0.40293621  0.77763970  1
  Li  Li93  1  0.56073842  0.09706379  0.22236030  1
  Li  Li94  1  0.43926158  0.59706379  0.27763970  1
  Li  Li95  1  0.93926158  0.90293621  0.72236030  1
  Li  Li96  1  0.77763970  0.06073842  0.40293621  1
  Li  Li97  1  0.22236030  0.56073842  0.09706379  1
  Li  Li98  1  0.27763970  0.43926158  0.59706379  1
  Li  Li99  1  0.72236030  0.93926158  0.90293621  1
  Li  Li100  1  0.52763970  0.65293621  0.18926158  1
  Li  Li101  1  0.97236030  0.34706379  0.68926158  1
  Li  Li102  1  0.02763970  0.84706379  0.81073842  1
  Li  Li103  1  0.47236030  0.15293621  0.31073842  1
  Li  Li104  1  0.15293621  0.31073842  0.47236030  1
  Li  Li105  1  0.84706379  0.81073842  0.02763970  1
  Li  Li106  1  0.34706379  0.68926158  0.97236030  1
  Li  Li107  1  0.65293621  0.18926158  0.52763970  1
  Li  Li108  1  0.81073842  0.02763970  0.84706379  1
  Li  Li109  1  0.31073842  0.47236030  0.15293621  1
  Li  Li110  1  0.18926158  0.52763970  0.65293621  1
  Li  Li111  1  0.68926158  0.97236030  0.34706379  1
  Li  Li112  1  0.94464078  0.94464078  0.94464078  1
  Li  Li113  1  0.55535922  0.05535922  0.44464078  1
  Li  Li114  1  0.05535922  0.44464078  0.55535922  1
  Li  Li115  1  0.44464078  0.55535922  0.05535922  1
  Li  Li116  1  0.69464078  0.19464078  0.30535922  1
  Li  Li117  1  0.80535922  0.80535922  0.80535922  1
  Li  Li118  1  0.19464078  0.30535922  0.69464078  1
  Li  Li119  1  0.30535922  0.69464078  0.19464078  1
  Li  Li120  1  0.44464078  0.44464078  0.44464078  1
  Li  Li121  1  0.05535922  0.55535922  0.94464078  1
  Li  Li122  1  0.55535922  0.94464078  0.05535922  1
  Li  Li123  1  0.94464078  0.05535922  0.55535922  1
  Li  Li124  1  0.19464078  0.69464078  0.80535922  1
  Li  Li125  1  0.30535922  0.30535922  0.30535922  1
  Li  Li126  1  0.69464078  0.80535922  0.19464078  1
  Li  Li127  1  0.80535922  0.19464078  0.69464078  1
