# generated using pymatgen
data_LiF
_symmetry_space_group_name_H-M   'P 1'
_cell_length_a   7.76126226
_cell_length_b   5.27593079
_cell_length_c   9.83449471
_cell_angle_alpha   90.00000000
_cell_angle_beta   90.00000000
_cell_angle_gamma   90.00000000
_symmetry_Int_Tables_number   1
_chemical_formula_structural   LiF
_chemical_formula_sum   'Li24 F24'
_cell_volume   402.70173396
_cell_formula_units_Z   24
loop_
 _symmetry_equiv_pos_site_id
 _symmetry_equiv_pos_as_xyz
  1  'x, y, z'
loop_
 _atom_site_type_symbol
 _atom_site_label
 _atom_site_symmetry_multiplicity
 _atom_site_fract_x
 _atom_site_fract_y
 _atom_site_fract_z
 _atom_site_occupancy
  F  F0  1  0.00000000  0.00000000  0.00000000  1
  F  F1  1  0.50000000  0.00000000  0.50000000  1
  F  F2  1  0.00000000  0.50000000  0.00000000  1
  F  F3  1  0.50000000  0.50000000  0.50000000  1
  F  F4  1  0.24480265  0.25000000  0.21380861  1
  F  F5  1  0.25519735  0.75000000  0.71380861  1
  F  F6  1  0.75519735  0.75000000  0.78619139  1
  F  F7  1  0.74480265  0.25000000  0.28619139  1
  F  F8  1  0.74270083  0.14637504  0.82188182  1
  F  F9  1  0.75729917  0.85362496  0.32188182  1
  F  F10  1  0.25729917  0.64637504  0.17811818  1
  F  F11  1  0.24270083  0.35362496  0.67811818  1
  F  F12  1  0.25729917  0.85362496  0.17811818  1
  F  F13  1  0.24270083  0.14637504  0.67811818  1
  F  F14  1  0.74270083  0.35362496  0.82188182  1
  F  F15  1  0.75729917  0.64637504  0.32188182  1
  F  F16  1  0.87365347  0.17513027  0.10129768  1
  F  F17  1  0.62634653  0.82486973  0.60129768  1
  F  F18  1  0.12634653  0.67513027  0.89870232  1
  F  F19  1  0.37365347  0.32486973  0.39870232  1
  F  F20  1  0.12634653  0.82486973  0.89870232  1
  F  F21  1  0.37365347  0.17513027  0.39870232  1
  F  F22  1  0.87365347  0.32486973  0.10129768  1
  F  F23  1  0.62634653  0.67513027  0.60129768  1
  Li  Li24  1  0.27079681  0.93150817  0.29917276  1
  Li  Li25  1  0.22920319  -0.93150817  0.79917276  1
  Li  Li26  1  -0.27079681  1.43150817  -0.29917276  1
  Li  Li27  1  0.77079681  -0.43150817  0.20082724  1
  Li  Li28  1  -0.27079681  -0.93150817  -0.29917276  1
  Li  Li29  1  0.77079681  0.93150817  0.20082724  1
  Li  Li30  1  0.27079681  -0.43150817  0.29917276  1
  Li  Li31  1  0.22920319  1.43150817  0.79917276  1
  Li  Li32  1  0.66486191  0.93462789  0.53329912  1
  Li  Li33  1  0.83513809  0.06537211  0.03329912  1
  Li  Li34  1  0.33513809  0.43462789  0.46670088  1
  Li  Li35  1  0.16486191  0.56537211  0.96670088  1
  Li  Li36  1  0.33513809  0.06537211  0.46670088  1
  Li  Li37  1  0.16486191  0.93462789  0.96670088  1
  Li  Li38  1  0.66486191  0.56537211  0.53329912  1
  Li  Li39  1  0.83513809  0.43462789  0.03329912  1
  Li  Li40  1  0.07087436  0.25000000  0.82114637  1
  Li  Li41  1  0.42912564  0.75000000  0.32114637  1
  Li  Li42  1  0.92912564  0.75000000  0.17885363  1
  Li  Li43  1  0.57087436  0.25000000  0.67885363  1
  Li  Li44  1  0.00000000  0.00000000  0.50000000  1
  Li  Li45  1  0.50000000  0.00000000  0.00000000  1
  Li  Li46  1  0.00000000  0.50000000  0.50000000  1
  Li  Li47  1  0.50000000  0.50000000  0.00000000  1
