# generated using pymatgen
data_LiF
_symmetry_space_group_name_H-M   'P 1'
_cell_length_a   7.11963523
_cell_length_b   12.55751608
_cell_length_c   7.39002612
_cell_angle_alpha   90.00000000
_cell_angle_beta   90.00000000
_cell_angle_gamma   90.00000000
_symmetry_Int_Tables_number   1
_chemical_formula_structural   LiF
_chemical_formula_sum   'Li26 F26'
_cell_volume   660.70479633
_cell_formula_units_Z   26
loop_
 _symmetry_equiv_pos_site_id
 _symmetry_equiv_pos_as_xyz
  1  'x, y, z'
loop_
 _atom_site_type_symbol
 _atom_site_label
 _atom_site_symmetry_multiplicity
 _atom_site_fract_x
 _atom_site_fract_y
 _atom_site_fract_z
 _atom_site_occupancy
  F  F0  1  0.00000000  0.00000000  0.50000000  1
  F  F1  1  0.50000000  0.50000000  0.50000000  1
  F  F2  1  0.00000000  0.00000000  0.00000000  1
  F  F3  1  0.50000000  0.50000000  -0.00000000  1
  F  F4  1  0.95868741  0.96107902  0.50000000  1
  F  F5  1  0.04131259  0.03892098  0.50000000  1
  F  F6  1  0.54131259  0.46107902  0.50000000  1
  F  F7  1  0.45868741  0.53892098  0.50000000  1
  F  F8  1  0.14538622  0.38674385  0.87698450  1
  F  F9  1  0.85461378  0.61325615  0.87698450  1
  F  F10  1  0.35461378  0.88674385  0.12301550  1
  F  F11  1  0.64538622  0.11325615  0.12301550  1
  F  F12  1  0.85461378  0.61325615  0.12301550  1
  F  F13  1  0.14538622  0.38674385  0.12301550  1
  F  F14  1  0.64538622  0.11325615  0.87698450  1
  F  F15  1  0.35461378  0.88674385  0.87698450  1
  F  F16  1  0.58077237  0.37061865  0.30173237  1
  F  F17  1  0.41922763  0.62938135  0.30173237  1
  F  F18  1  0.91922763  0.87061865  0.69826763  1
  F  F19  1  0.08077237  0.12938135  0.69826763  1
  F  F20  1  0.41922763  0.62938135  0.69826763  1
  F  F21  1  0.58077237  0.37061865  0.69826763  1
  F  F22  1  0.08077237  0.12938135  0.30173237  1
  F  F23  1  0.91922763  0.87061865  0.30173237  1
  F  F24  1  0.00000000  0.50000000  0.50000000  1
  F  F25  1  0.50000000  0.00000000  0.50000000  1
  Li  Li26  1  0.78616570  0.13571793  0.40260218  1
  Li  Li27  1  -0.78616570  -0.13571793  0.40260218  1
  Li  Li28  1  -0.28616570  0.63571793  -0.40260218  1
  Li  Li29  1  1.28616570  0.36428207  -0.40260218  1
  Li  Li30  1  -0.78616570  -0.13571793  -0.40260218  1
  Li  Li31  1  0.78616570  0.13571793  -0.40260218  1
  Li  Li32  1  1.28616570  0.36428207  0.40260218  1
  Li  Li33  1  -0.28616570  0.63571793  0.40260218  1
  Li  Li34  1  0.00000000  0.50000000  -0.00000000  1
  Li  Li35  1  0.50000000  0.00000000  -0.00000000  1
  Li  Li36  1  0.97407090  0.62854288  -0.00000000  1
  Li  Li37  1  0.02592910  0.37145712  0.00000000  1
  Li  Li38  1  0.52592910  0.12854288  -0.00000000  1
  Li  Li39  1  0.47407090  0.87145712  -0.00000000  1
  Li  Li40  1  0.00000000  0.00000000  0.16186235  1
  Li  Li41  1  0.50000000  0.50000000  0.83813765  1
  Li  Li42  1  0.00000000  0.00000000  0.83813765  1
  Li  Li43  1  0.50000000  0.50000000  0.16186235  1
  Li  Li44  1  0.90179987  0.27565507  0.82472628  1
  Li  Li45  1  0.09820013  0.72434493  0.82472628  1
  Li  Li46  1  0.59820013  0.77565507  0.17527372  1
  Li  Li47  1  0.40179987  0.22434493  0.17527372  1
  Li  Li48  1  0.09820013  0.72434493  0.17527372  1
  Li  Li49  1  0.90179987  0.27565507  0.17527372  1
  Li  Li50  1  0.40179987  0.22434493  0.82472628  1
  Li  Li51  1  0.59820013  0.77565507  0.82472628  1
