# generated using pymatgen
data_Li2Y2As4P3Se
_symmetry_space_group_name_H-M   'P 1'
_cell_length_a   4.98325876
_cell_length_b   5.17847283
_cell_length_c   6.91362307
_cell_angle_alpha   94.60929827
_cell_angle_beta   99.46001900
_cell_angle_gamma   107.60714561
_symmetry_Int_Tables_number   1
_chemical_formula_structural   Li2Y2As4P3Se
_chemical_formula_sum   'Li2 Y2 As4 P3 Se1'
_cell_volume   166.12689304
_cell_formula_units_Z   1
loop_
 _symmetry_equiv_pos_site_id
 _symmetry_equiv_pos_as_xyz
  1  'x, y, z'
loop_
 _atom_site_type_symbol
 _atom_site_label
 _atom_site_symmetry_multiplicity
 _atom_site_fract_x
 _atom_site_fract_y
 _atom_site_fract_z
 _atom_site_occupancy
  Se  Se0  1  0.00000000  0.00000000  0.00000000  1
  P  P1  1  0.50000000  0.50000000  0.50000000  1
  P  P2  1  0.25000000  0.25000000  0.25000000  1
  P  P3  1  0.75000000  0.25000000  0.00000000  1
  As  As4  1  0.25000000  0.75000000  0.50000000  1
  As  As5  1  0.74354083  0.99933945  0.96730958  1
  As  As6  1  0.38738943  0.64694482  0.84614779  1
  As  As7  1  0.82302854  0.53205046  0.33142910  1
  Li  Li8  1  0.37159132  0.96538279  0.27448976  1
  Li  Li9  1  0.00791580  0.35477953  0.60631898  1
  Y  Y10  1  0.16351944  0.84712266  0.25334054  1
  Y  Y11  1  0.63866378  0.48054004  0.21251825  1
