# generated using pymatgen
data_LiF
_symmetry_space_group_name_H-M   'P 1'
_cell_length_a   10.90443184
_cell_length_b   10.90443184
_cell_length_c   10.90443184
_cell_angle_alpha   90.00000000
_cell_angle_beta   90.00000000
_cell_angle_gamma   90.00000000
_symmetry_Int_Tables_number   1
_chemical_formula_structural   LiF
_chemical_formula_sum   'Li48 F48'
_cell_volume   1296.60928365
_cell_formula_units_Z   48
loop_
 _symmetry_equiv_pos_site_id
 _symmetry_equiv_pos_as_xyz
  1  'x, y, z'
loop_
 _atom_site_type_symbol
 _atom_site_label
 _atom_site_symmetry_multiplicity
 _atom_site_fract_x
 _atom_site_fract_y
 _atom_site_fract_z
 _atom_site_occupancy
  F  F0  1  0.38395849  0.70124720  0.19148169  1
  F  F1  1  0.11604151  -0.70124720  0.69148169  1
  F  F2  1  -0.38395849  1.20124720  0.30851831  1
  F  F3  1  0.88395849  -0.20124720  -0.19148169  1
  F  F4  1  0.19148169  0.38395849  0.70124720  1
  F  F5  1  0.69148169  0.11604151  -0.70124720  1
  F  F6  1  0.30851831  -0.38395849  1.20124720  1
  F  F7  1  -0.19148169  0.88395849  -0.20124720  1
  F  F8  1  0.70124720  0.19148169  0.38395849  1
  F  F9  1  -0.70124720  0.69148169  0.11604151  1
  F  F10  1  1.20124720  0.30851831  -0.38395849  1
  F  F11  1  -0.20124720  -0.19148169  0.88395849  1
  F  F12  1  1.45124720  0.63395849  0.05851831  1
  F  F13  1  0.04875280  0.36604151  0.55851831  1
  F  F14  1  0.95124720  -0.13395849  0.94148169  1
  F  F15  1  -0.45124720  1.13395849  0.44148169  1
  F  F16  1  1.13395849  0.44148169  -0.45124720  1
  F  F17  1  -0.13395849  0.94148169  0.95124720  1
  F  F18  1  0.36604151  0.55851831  0.04875280  1
  F  F19  1  0.63395849  0.05851831  1.45124720  1
  F  F20  1  0.94148169  0.95124720  -0.13395849  1
  F  F21  1  0.44148169  -0.45124720  1.13395849  1
  F  F22  1  0.05851831  1.45124720  0.63395849  1
  F  F23  1  0.55851831  0.04875280  0.36604151  1
  F  F24  1  0.88395849  1.20124720  0.69148169  1
  F  F25  1  0.61604151  -0.20124720  1.19148169  1
  F  F26  1  0.11604151  1.70124720  0.80851831  1
  F  F27  1  1.38395849  0.29875280  0.30851831  1
  F  F28  1  0.69148169  0.88395849  1.20124720  1
  F  F29  1  1.19148169  0.61604151  -0.20124720  1
  F  F30  1  0.80851831  0.11604151  1.70124720  1
  F  F31  1  0.30851831  1.38395849  0.29875280  1
  F  F32  1  1.20124720  0.69148169  0.88395849  1
  F  F33  1  -0.20124720  1.19148169  0.61604151  1
  F  F34  1  1.70124720  0.80851831  0.11604151  1
  F  F35  1  0.29875280  0.30851831  1.38395849  1
  F  F36  1  1.95124720  1.13395849  0.55851831  1
  F  F37  1  0.54875280  0.86604151  1.05851831  1
  F  F38  1  1.45124720  0.36604151  1.44148169  1
  F  F39  1  0.04875280  1.63395849  0.94148169  1
  F  F40  1  1.63395849  0.94148169  0.04875280  1
  F  F41  1  0.36604151  1.44148169  1.45124720  1
  F  F42  1  0.86604151  1.05851831  0.54875280  1
  F  F43  1  1.13395849  0.55851831  1.95124720  1
  F  F44  1  1.44148169  1.45124720  0.36604151  1
  F  F45  1  0.94148169  0.04875280  1.63395849  1
  F  F46  1  0.55851831  1.95124720  1.13395849  1
  F  F47  1  1.05851831  0.54875280  0.86604151  1
  Li  Li48  1  0.57067041  0.70959785  0.30980840  1
  Li  Li49  1  0.92932959  0.29040215  0.80980840  1
  Li  Li50  1  0.42932959  0.20959785  0.19019160  1
  Li  Li51  1  0.07067041  0.79040215  0.69019160  1
  Li  Li52  1  0.30980840  0.57067041  0.70959785  1
  Li  Li53  1  0.80980840  0.92932959  0.29040215  1
  Li  Li54  1  0.19019160  0.42932959  0.20959785  1
  Li  Li55  1  0.69019160  0.07067041  0.79040215  1
  Li  Li56  1  0.70959785  0.30980840  0.57067041  1
  Li  Li57  1  0.29040215  0.80980840  0.92932959  1
  Li  Li58  1  0.20959785  0.19019160  0.42932959  1
  Li  Li59  1  0.79040215  0.69019160  0.07067041  1
  Li  Li60  1  0.45959785  0.82067041  0.94019160  1
  Li  Li61  1  0.04040215  0.17932959  0.44019160  1
  Li  Li62  1  0.95959785  0.67932959  0.05980840  1
  Li  Li63  1  0.54040215  0.32067041  0.55980840  1
  Li  Li64  1  0.32067041  0.55980840  0.54040215  1
  Li  Li65  1  0.67932959  0.05980840  0.95959785  1
  Li  Li66  1  0.17932959  0.44019160  0.04040215  1
  Li  Li67  1  0.82067041  0.94019160  0.45959785  1
  Li  Li68  1  0.05980840  0.95959785  0.67932959  1
  Li  Li69  1  0.55980840  0.54040215  0.32067041  1
  Li  Li70  1  0.94019160  0.45959785  0.82067041  1
  Li  Li71  1  0.44019160  0.04040215  0.17932959  1
  Li  Li72  1  0.07067041  0.20959785  0.80980840  1
  Li  Li73  1  0.42932959  0.79040215  0.30980840  1
  Li  Li74  1  0.92932959  0.70959785  0.69019160  1
  Li  Li75  1  0.57067041  0.29040215  0.19019160  1
  Li  Li76  1  0.80980840  0.07067041  0.20959785  1
  Li  Li77  1  0.30980840  0.42932959  0.79040215  1
  Li  Li78  1  0.69019160  0.92932959  0.70959785  1
  Li  Li79  1  0.19019160  0.57067041  0.29040215  1
  Li  Li80  1  0.20959785  0.80980840  0.07067041  1
  Li  Li81  1  0.79040215  0.30980840  0.42932959  1
  Li  Li82  1  0.70959785  0.69019160  0.92932959  1
  Li  Li83  1  0.29040215  0.19019160  0.57067041  1
  Li  Li84  1  0.95959785  0.32067041  0.44019160  1
  Li  Li85  1  0.54040215  0.67932959  0.94019160  1
  Li  Li86  1  0.45959785  0.17932959  0.55980840  1
  Li  Li87  1  0.04040215  0.82067041  0.05980840  1
  Li  Li88  1  0.82067041  0.05980840  0.04040215  1
  Li  Li89  1  0.17932959  0.55980840  0.45959785  1
  Li  Li90  1  0.67932959  0.94019160  0.54040215  1
  Li  Li91  1  0.32067041  0.44019160  0.95959785  1
  Li  Li92  1  0.55980840  0.45959785  0.17932959  1
  Li  Li93  1  0.05980840  0.04040215  0.82067041  1
  Li  Li94  1  0.44019160  0.95959785  0.32067041  1
  Li  Li95  1  0.94019160  0.54040215  0.67932959  1
