# generated using pymatgen
data_LiYAlOF
_symmetry_space_group_name_H-M   'P 1'
_cell_length_a   3.15953821
_cell_length_b   2.78530995
_cell_length_c   5.69802741
_cell_angle_alpha   101.27580395
_cell_angle_beta   102.93988570
_cell_angle_gamma   99.63080421
_symmetry_Int_Tables_number   1
_chemical_formula_structural   LiYAlOF
_chemical_formula_sum   'Li1 Y1 Al1 O1 F1'
_cell_volume   46.74417890
_cell_formula_units_Z   1
loop_
 _symmetry_equiv_pos_site_id
 _symmetry_equiv_pos_as_xyz
  1  'x, y, z'
loop_
 _atom_site_type_symbol
 _atom_site_label
 _atom_site_symmetry_multiplicity
 _atom_site_fract_x
 _atom_site_fract_y
 _atom_site_fract_z
 _atom_site_occupancy
  F  F0  1  0.00000000  0.00000000  0.00000000  1
  O  O1  1  0.50000000  0.50000000  0.50000000  1
  Y  Y2  1  0.50000000  0.50000000  0.00000000  1
  Al  Al3  1  0.50000000  0.00000000  0.50000000  1
  Li  Li4  1  0.00000000  0.50000000  0.50000000  1
