# generated using pymatgen
data_Li4TeF2
_symmetry_space_group_name_H-M   'P 1'
_cell_length_a   12.48443793
_cell_length_b   12.48443793
_cell_length_c   12.48443793
_cell_angle_alpha   90.00000000
_cell_angle_beta   90.00000000
_cell_angle_gamma   90.00000000
_symmetry_Int_Tables_number   1
_chemical_formula_structural   Li4TeF2
_chemical_formula_sum   'Li96 Te24 F48'
_cell_volume   1945.83935540
_cell_formula_units_Z   24
loop_
 _symmetry_equiv_pos_site_id
 _symmetry_equiv_pos_as_xyz
  1  'x, y, z'
loop_
 _atom_site_type_symbol
 _atom_site_label
 _atom_site_symmetry_multiplicity
 _atom_site_fract_x
 _atom_site_fract_y
 _atom_site_fract_z
 _atom_site_occupancy
  F  F0  1  0.12500000  0.12500000  0.12500000  1
  F  F1  1  0.37500000  0.87500000  0.62500000  1
  F  F2  1  0.87500000  0.62500000  0.37500000  1
  F  F3  1  0.62500000  0.37500000  0.87500000  1
  F  F4  1  0.62500000  0.62500000  0.62500000  1
  F  F5  1  0.87500000  0.37500000  0.12500000  1
  F  F6  1  0.37500000  0.12500000  0.87500000  1
  F  F7  1  0.12500000  0.87500000  0.37500000  1
  F  F8  1  0.82362798  0.00000000  0.25000000  1
  F  F9  1  0.67637202  0.00000000  0.75000000  1
  F  F10  1  0.25000000  0.82362798  0.00000000  1
  F  F11  1  0.75000000  0.67637202  0.00000000  1
  F  F12  1  0.00000000  0.25000000  0.82362798  1
  F  F13  1  0.00000000  0.75000000  0.67637202  1
  F  F14  1  0.75000000  0.07362798  0.00000000  1
  F  F15  1  0.75000000  0.92637202  0.50000000  1
  F  F16  1  0.57362798  0.50000000  0.25000000  1
  F  F17  1  0.42637202  0.00000000  0.25000000  1
  F  F18  1  0.00000000  0.25000000  0.42637202  1
  F  F19  1  0.50000000  0.25000000  0.57362798  1
  F  F20  1  0.32362798  0.50000000  0.75000000  1
  F  F21  1  0.17637202  0.50000000  0.25000000  1
  F  F22  1  0.75000000  0.32362798  0.50000000  1
  F  F23  1  0.25000000  0.17637202  0.50000000  1
  F  F24  1  0.50000000  0.75000000  0.32362798  1
  F  F25  1  0.50000000  0.25000000  0.17637202  1
  F  F26  1  0.25000000  0.57362798  0.50000000  1
  F  F27  1  0.25000000  0.42637202  -0.00000000  1
  F  F28  1  0.07362798  0.00000000  0.75000000  1
  F  F29  1  0.92637202  0.50000000  0.75000000  1
  F  F30  1  0.50000000  0.75000000  0.92637202  1
  F  F31  1  0.00000000  0.75000000  0.07362798  1
  F  F32  1  0.04287424  0.04287424  0.04287424  1
  F  F33  1  0.45712576  0.95712576  0.54287424  1
  F  F34  1  0.95712576  0.54287424  0.45712576  1
  F  F35  1  0.54287424  0.45712576  0.95712576  1
  F  F36  1  0.79287424  0.29287424  0.20712576  1
  F  F37  1  0.70712576  0.70712576  0.70712576  1
  F  F38  1  0.29287424  0.20712576  0.79287424  1
  F  F39  1  0.20712576  0.79287424  0.29287424  1
  F  F40  1  0.54287424  0.54287424  0.54287424  1
  F  F41  1  0.95712576  0.45712576  0.04287424  1
  F  F42  1  0.45712576  0.04287424  0.95712576  1
  F  F43  1  0.04287424  0.95712576  0.45712576  1
  F  F44  1  0.29287424  0.79287424  0.70712576  1
  F  F45  1  0.20712576  0.20712576  0.20712576  1
  F  F46  1  0.79287424  0.70712576  0.29287424  1
  F  F47  1  0.70712576  0.29287424  0.79287424  1
  Li  Li48  1  0.51347706  0.00000000  0.25000000  1
  Li  Li49  1  0.98652294  0.00000000  0.75000000  1
  Li  Li50  1  0.25000000  0.51347706  0.00000000  1
  Li  Li51  1  0.75000000  0.98652294  0.00000000  1
  Li  Li52  1  0.00000000  0.25000000  0.51347706  1
  Li  Li53  1  0.00000000  0.75000000  0.98652294  1
  Li  Li54  1  0.75000000  0.76347706  0.00000000  1
  Li  Li55  1  0.75000000  0.23652294  0.50000000  1
  Li  Li56  1  0.26347706  0.50000000  0.25000000  1
  Li  Li57  1  0.73652294  0.00000000  0.25000000  1
  Li  Li58  1  0.00000000  0.25000000  0.73652294  1
  Li  Li59  1  0.50000000  0.25000000  0.26347706  1
  Li  Li60  1  0.01347706  0.50000000  0.75000000  1
  Li  Li61  1  0.48652294  0.50000000  0.25000000  1
  Li  Li62  1  0.75000000  0.01347706  0.50000000  1
  Li  Li63  1  0.25000000  0.48652294  0.50000000  1
  Li  Li64  1  0.50000000  0.75000000  0.01347706  1
  Li  Li65  1  0.50000000  0.25000000  0.48652294  1
  Li  Li66  1  0.25000000  0.26347706  0.50000000  1
  Li  Li67  1  0.25000000  0.73652294  0.00000000  1
  Li  Li68  1  0.76347706  0.00000000  0.75000000  1
  Li  Li69  1  0.23652294  0.50000000  0.75000000  1
  Li  Li70  1  0.50000000  0.75000000  0.23652294  1
  Li  Li71  1  0.00000000  0.75000000  0.76347706  1
  Li  Li72  1  0.38435980  0.50443048  0.37793442  1
  Li  Li73  1  0.11564020  -0.50443048  0.87793442  1
  Li  Li74  1  -0.38435980  1.00443048  0.12206558  1
  Li  Li75  1  0.88435980  -0.00443048  -0.37793442  1
  Li  Li76  1  0.37793442  0.38435980  0.50443048  1
  Li  Li77  1  0.87793442  0.11564020  -0.50443048  1
  Li  Li78  1  0.12206558  -0.38435980  1.00443048  1
  Li  Li79  1  -0.37793442  0.88435980  -0.00443048  1
  Li  Li80  1  0.50443048  0.37793442  0.38435980  1
  Li  Li81  1  -0.50443048  0.87793442  0.11564020  1
  Li  Li82  1  1.00443048  0.12206558  -0.38435980  1
  Li  Li83  1  -0.00443048  -0.37793442  0.88435980  1
  Li  Li84  1  1.25443048  0.63435980  -0.12793442  1
  Li  Li85  1  0.24556952  0.36564020  0.37206558  1
  Li  Li86  1  0.75443048  -0.13435980  1.12793442  1
  Li  Li87  1  -0.25443048  1.13435980  0.62793442  1
  Li  Li88  1  1.13435980  0.62793442  -0.25443048  1
  Li  Li89  1  -0.13435980  1.12793442  0.75443048  1
  Li  Li90  1  0.36564020  0.37206558  0.24556952  1
  Li  Li91  1  0.63435980  -0.12793442  1.25443048  1
  Li  Li92  1  1.12793442  0.75443048  -0.13435980  1
  Li  Li93  1  0.62793442  -0.25443048  1.13435980  1
  Li  Li94  1  -0.12793442  1.25443048  0.63435980  1
  Li  Li95  1  0.37206558  0.24556952  0.36564020  1
  Li  Li96  1  0.88435980  1.00443048  0.87793442  1
  Li  Li97  1  0.61564020  -0.00443048  1.37793442  1
  Li  Li98  1  0.11564020  1.50443048  0.62206558  1
  Li  Li99  1  1.38435980  0.49556952  0.12206558  1
  Li  Li100  1  0.87793442  0.88435980  1.00443048  1
  Li  Li101  1  1.37793442  0.61564020  -0.00443048  1
  Li  Li102  1  0.62206558  0.11564020  1.50443048  1
  Li  Li103  1  0.12206558  1.38435980  0.49556952  1
  Li  Li104  1  1.00443048  0.87793442  0.88435980  1
  Li  Li105  1  -0.00443048  1.37793442  0.61564020  1
  Li  Li106  1  1.50443048  0.62206558  0.11564020  1
  Li  Li107  1  0.49556952  0.12206558  1.38435980  1
  Li  Li108  1  1.75443048  1.13435980  0.37206558  1
  Li  Li109  1  0.74556952  0.86564020  0.87206558  1
  Li  Li110  1  1.25443048  0.36564020  1.62793442  1
  Li  Li111  1  0.24556952  1.63435980  1.12793442  1
  Li  Li112  1  1.63435980  1.12793442  0.24556952  1
  Li  Li113  1  0.36564020  1.62793442  1.25443048  1
  Li  Li114  1  0.86564020  0.87206558  0.74556952  1
  Li  Li115  1  1.13435980  0.37206558  1.75443048  1
  Li  Li116  1  1.62793442  1.25443048  0.36564020  1
  Li  Li117  1  1.12793442  0.24556952  1.63435980  1
  Li  Li118  1  0.37206558  1.75443048  1.13435980  1
  Li  Li119  1  0.87206558  0.74556952  0.86564020  1
  Li  Li120  1  0.31089375  0.00000000  0.25000000  1
  Li  Li121  1  0.18910625  -0.00000000  0.75000000  1
  Li  Li122  1  0.25000000  0.31089375  0.00000000  1
  Li  Li123  1  0.75000000  0.18910625  0.00000000  1
  Li  Li124  1  0.00000000  0.25000000  0.31089375  1
  Li  Li125  1  0.00000000  0.75000000  0.18910625  1
  Li  Li126  1  0.75000000  0.56089375  0.00000000  1
  Li  Li127  1  0.75000000  0.43910625  0.50000000  1
  Li  Li128  1  0.06089375  0.50000000  0.25000000  1
  Li  Li129  1  0.93910625  -0.00000000  0.25000000  1
  Li  Li130  1  0.00000000  0.25000000  0.93910625  1
  Li  Li131  1  0.50000000  0.25000000  0.06089375  1
  Li  Li132  1  0.81089375  0.50000000  0.75000000  1
  Li  Li133  1  0.68910625  0.50000000  0.25000000  1
  Li  Li134  1  0.75000000  0.81089375  0.50000000  1
  Li  Li135  1  0.25000000  0.68910625  0.50000000  1
  Li  Li136  1  0.50000000  0.75000000  0.81089375  1
  Li  Li137  1  0.50000000  0.25000000  0.68910625  1
  Li  Li138  1  0.25000000  0.06089375  0.50000000  1
  Li  Li139  1  0.25000000  0.93910625  -0.00000000  1
  Li  Li140  1  0.56089375  0.00000000  0.75000000  1
  Li  Li141  1  0.43910625  0.50000000  0.75000000  1
  Li  Li142  1  0.50000000  0.75000000  0.43910625  1
  Li  Li143  1  0.00000000  0.75000000  0.56089375  1
  Te  Te144  1  0.47957438  0.47957438  0.47957438  1
  Te  Te145  1  0.02042562  0.52042562  0.97957438  1
  Te  Te146  1  0.52042562  0.97957438  0.02042562  1
  Te  Te147  1  0.97957438  0.02042562  0.52042562  1
  Te  Te148  1  0.22957438  0.72957438  0.77042562  1
  Te  Te149  1  0.27042562  0.27042562  0.27042562  1
  Te  Te150  1  0.72957438  0.77042562  0.22957438  1
  Te  Te151  1  0.77042562  0.22957438  0.72957438  1
  Te  Te152  1  0.97957438  0.97957438  0.97957438  1
  Te  Te153  1  0.52042562  0.02042562  0.47957438  1
  Te  Te154  1  0.02042562  0.47957438  0.52042562  1
  Te  Te155  1  0.47957438  0.52042562  0.02042562  1
  Te  Te156  1  0.72957438  0.22957438  0.27042562  1
  Te  Te157  1  0.77042562  0.77042562  0.77042562  1
  Te  Te158  1  0.22957438  0.27042562  0.72957438  1
  Te  Te159  1  0.27042562  0.72957438  0.22957438  1
  Te  Te160  1  0.87500000  0.87500000  0.87500000  1
  Te  Te161  1  0.62500000  0.12500000  0.37500000  1
  Te  Te162  1  0.12500000  0.37500000  0.62500000  1
  Te  Te163  1  0.37500000  0.62500000  0.12500000  1
  Te  Te164  1  0.37500000  0.37500000  0.37500000  1
  Te  Te165  1  0.12500000  0.62500000  0.87500000  1
  Te  Te166  1  0.62500000  0.87500000  0.12500000  1
  Te  Te167  1  0.87500000  0.12500000  0.62500000  1
