# generated using pymatgen
data_LiF
_symmetry_space_group_name_H-M   'P 1'
_cell_length_a   13.42685162
_cell_length_b   11.13099784
_cell_length_c   15.10905809
_cell_angle_alpha   90.00000000
_cell_angle_beta   90.00000000
_cell_angle_gamma   90.00000000
_symmetry_Int_Tables_number   1
_chemical_formula_structural   LiF
_chemical_formula_sum   'Li64 F64'
_cell_volume   2258.11304087
_cell_formula_units_Z   64
loop_
 _symmetry_equiv_pos_site_id
 _symmetry_equiv_pos_as_xyz
  1  'x, y, z'
loop_
 _atom_site_type_symbol
 _atom_site_label
 _atom_site_symmetry_multiplicity
 _atom_site_fract_x
 _atom_site_fract_y
 _atom_site_fract_z
 _atom_site_occupancy
  F  F0  1  0.96499387  0.40421989  0.26447292  1
  F  F1  1  0.53500613  0.59578011  0.76447292  1
  F  F2  1  0.03500613  0.90421989  0.73552708  1
  F  F3  1  0.46499387  0.09578011  0.23552708  1
  F  F4  1  0.03500613  0.59578011  0.73552708  1
  F  F5  1  0.46499387  0.40421989  0.23552708  1
  F  F6  1  0.96499387  0.09578011  0.26447292  1
  F  F7  1  0.53500613  0.90421989  0.76447292  1
  F  F8  1  0.59288110  0.45747663  0.36893080  1
  F  F9  1  0.90711890  0.54252337  0.86893080  1
  F  F10  1  0.40711890  0.95747663  0.63106920  1
  F  F11  1  0.09288110  0.04252337  0.13106920  1
  F  F12  1  0.40711890  0.54252337  0.63106920  1
  F  F13  1  0.09288110  0.45747663  0.13106920  1
  F  F14  1  0.59288110  0.04252337  0.36893080  1
  F  F15  1  0.90711890  0.95747663  0.86893080  1
  F  F16  1  0.10907887  0.34131149  0.51262698  1
  F  F17  1  0.39092113  0.65868851  0.01262698  1
  F  F18  1  0.89092113  0.84131149  0.48737302  1
  F  F19  1  0.60907887  0.15868851  0.98737302  1
  F  F20  1  0.89092113  0.65868851  0.48737302  1
  F  F21  1  0.60907887  0.34131149  0.98737302  1
  F  F22  1  0.10907887  0.15868851  0.51262698  1
  F  F23  1  0.39092113  0.84131149  0.01262698  1
  F  F24  1  0.52702341  0.14050469  0.42974817  1
  F  F25  1  0.97297659  0.85949531  0.92974817  1
  F  F26  1  0.47297659  0.64050469  0.57025183  1
  F  F27  1  0.02702341  0.35949531  0.07025183  1
  F  F28  1  0.47297659  0.85949531  0.57025183  1
  F  F29  1  0.02702341  0.14050469  0.07025183  1
  F  F30  1  0.52702341  0.35949531  0.42974817  1
  F  F31  1  0.97297659  0.64050469  0.92974817  1
  F  F32  1  0.13372159  0.78111684  0.85666599  1
  F  F33  1  0.36627841  0.21888316  0.35666599  1
  F  F34  1  0.86627841  0.28111684  0.14333401  1
  F  F35  1  0.63372159  0.71888316  0.64333401  1
  F  F36  1  0.86627841  0.21888316  0.14333401  1
  F  F37  1  0.63372159  0.78111684  0.64333401  1
  F  F38  1  0.13372159  0.71888316  0.85666599  1
  F  F39  1  0.36627841  0.28111684  0.35666599  1
  F  F40  1  0.13083244  0.36976834  0.94860108  1
  F  F41  1  0.36916756  0.63023166  0.44860108  1
  F  F42  1  0.86916756  0.86976834  0.05139892  1
  F  F43  1  0.63083244  0.13023166  0.55139892  1
  F  F44  1  0.86916756  0.63023166  0.05139892  1
  F  F45  1  0.63083244  0.36976834  0.55139892  1
  F  F46  1  0.13083244  0.13023166  0.94860108  1
  F  F47  1  0.36916756  0.86976834  0.44860108  1
  F  F48  1  0.49530888  0.58164996  0.43634703  1
  F  F49  1  0.00469112  0.41835004  0.93634703  1
  F  F50  1  0.50469112  0.08164996  0.56365297  1
  F  F51  1  0.99530888  0.91835004  0.06365297  1
  F  F52  1  0.50469112  0.41835004  0.56365297  1
  F  F53  1  0.99530888  0.58164996  0.06365297  1
  F  F54  1  0.49530888  0.91835004  0.43634703  1
  F  F55  1  0.00469112  0.08164996  0.93634703  1
  F  F56  1  0.03660028  0.33882522  0.64315007  1
  F  F57  1  0.46339972  0.66117478  0.14315007  1
  F  F58  1  0.96339972  0.83882522  0.35684993  1
  F  F59  1  0.53660028  0.16117478  0.85684993  1
  F  F60  1  0.96339972  0.66117478  0.35684993  1
  F  F61  1  0.53660028  0.33882522  0.85684993  1
  F  F62  1  0.03660028  0.16117478  0.64315007  1
  F  F63  1  0.46339972  0.83882522  0.14315007  1
  Li  Li64  1  0.00000000  0.00000000  0.00000000  1
  Li  Li65  1  0.50000000  -0.00000000  0.50000000  1
  Li  Li66  1  0.00000000  0.50000000  -0.00000000  1
  Li  Li67  1  0.50000000  0.50000000  0.50000000  1
  Li  Li68  1  0.31264580  0.98820847  0.46261451  1
  Li  Li69  1  0.18735420  -0.98820847  0.96261451  1
  Li  Li70  1  -0.31264580  1.48820847  -0.46261451  1
  Li  Li71  1  0.81264580  -0.48820847  0.03738549  1
  Li  Li72  1  -0.31264580  -0.98820847  -0.46261451  1
  Li  Li73  1  0.81264580  0.98820847  0.03738549  1
  Li  Li74  1  0.31264580  -0.48820847  0.46261451  1
  Li  Li75  1  0.18735420  1.48820847  0.96261451  1
  Li  Li76  1  0.00000000  0.00000000  0.50000000  1
  Li  Li77  1  0.50000000  -0.00000000  -0.00000000  1
  Li  Li78  1  0.00000000  0.50000000  0.50000000  1
  Li  Li79  1  0.50000000  0.50000000  -0.00000000  1
  Li  Li80  1  0.90541880  0.25000000  0.07724805  1
  Li  Li81  1  0.59458120  0.75000000  0.57724805  1
  Li  Li82  1  0.09458120  0.75000000  0.92275195  1
  Li  Li83  1  0.40541880  0.25000000  0.42275195  1
  Li  Li84  1  0.84125746  0.36876209  0.22065638  1
  Li  Li85  1  0.65874254  0.63123791  0.72065638  1
  Li  Li86  1  0.15874254  0.86876209  0.77934362  1
  Li  Li87  1  0.34125746  0.13123791  0.27934362  1
  Li  Li88  1  0.15874254  0.63123791  0.77934362  1
  Li  Li89  1  0.34125746  0.36876209  0.27934362  1
  Li  Li90  1  0.84125746  0.13123791  0.22065638  1
  Li  Li91  1  0.65874254  0.86876209  0.72065638  1
  Li  Li92  1  0.54017278  0.41506935  0.79434347  1
  Li  Li93  1  0.95982722  0.58493065  0.29434347  1
  Li  Li94  1  0.45982722  0.91506935  0.20565653  1
  Li  Li95  1  0.04017278  0.08493065  0.70565653  1
  Li  Li96  1  0.45982722  0.58493065  0.20565653  1
  Li  Li97  1  0.04017278  0.41506935  0.70565653  1
  Li  Li98  1  0.54017278  0.08493065  0.79434347  1
  Li  Li99  1  0.95982722  0.91506935  0.29434347  1
  Li  Li100  1  0.66205930  0.25000000  0.41424226  1
  Li  Li101  1  0.83794070  0.75000000  0.91424226  1
  Li  Li102  1  0.33794070  0.75000000  0.58575774  1
  Li  Li103  1  0.16205930  0.25000000  0.08575774  1
  Li  Li104  1  0.15297226  0.09396207  0.09517532  1
  Li  Li105  1  0.34702774  0.90603793  0.59517532  1
  Li  Li106  1  0.84702774  0.59396207  0.90482468  1
  Li  Li107  1  0.65297226  0.40603793  0.40482468  1
  Li  Li108  1  0.84702774  0.90603793  0.90482468  1
  Li  Li109  1  0.65297226  0.09396207  0.40482468  1
  Li  Li110  1  0.15297226  0.40603793  0.09517532  1
  Li  Li111  1  0.34702774  0.59396207  0.59517532  1
  Li  Li112  1  0.21449454  0.25000000  0.58387240  1
  Li  Li113  1  0.28550546  0.75000000  0.08387240  1
  Li  Li114  1  0.78550546  0.75000000  0.41612760  1
  Li  Li115  1  0.71449454  0.25000000  0.91612760  1
  Li  Li116  1  0.48870764  0.15886480  0.50690041  1
  Li  Li117  1  0.01129236  0.84113520  0.00690041  1
  Li  Li118  1  0.51129236  0.65886480  0.49309959  1
  Li  Li119  1  0.98870764  0.34113520  0.99309959  1
  Li  Li120  1  0.51129236  0.84113520  0.49309959  1
  Li  Li121  1  0.98870764  0.15886480  0.99309959  1
  Li  Li122  1  0.48870764  0.34113520  0.50690041  1
  Li  Li123  1  0.01129236  0.65886480  0.00690041  1
  Li  Li124  1  0.95943896  0.25000000  0.74243154  1
  Li  Li125  1  0.54056104  0.75000000  0.24243154  1
  Li  Li126  1  0.04056104  0.75000000  0.25756846  1
  Li  Li127  1  0.45943896  0.25000000  0.75756846  1
