# generated using pymatgen
data_LiScTiClF
_symmetry_space_group_name_H-M   'P 1'
_cell_length_a   3.47805827
_cell_length_b   3.13759307
_cell_length_c   5.24515836
_cell_angle_alpha   102.12129275
_cell_angle_beta   106.11648386
_cell_angle_gamma   103.12003009
_symmetry_Int_Tables_number   1
_chemical_formula_structural   LiScTiClF
_chemical_formula_sum   'Li1 Sc1 Ti1 Cl1 F1'
_cell_volume   51.22373624
_cell_formula_units_Z   1
loop_
 _symmetry_equiv_pos_site_id
 _symmetry_equiv_pos_as_xyz
  1  'x, y, z'
loop_
 _atom_site_type_symbol
 _atom_site_label
 _atom_site_symmetry_multiplicity
 _atom_site_fract_x
 _atom_site_fract_y
 _atom_site_fract_z
 _atom_site_occupancy
  F  F0  1  0.00000000  0.00000000  0.00000000  1
  Sc  Sc1  1  0.50000000  0.50000000  0.50000000  1
  Ti  Ti2  1  0.50000000  0.50000000  0.00000000  1
  Li  Li3  1  0.50000000  0.00000000  0.50000000  1
  Cl  Cl4  1  0.00000000  0.50000000  0.50000000  1
