# generated using pymatgen
data_Li4TeF2
_symmetry_space_group_name_H-M   'P 1'
_cell_length_a   11.17438548
_cell_length_b   11.17438548
_cell_length_c   26.30647572
_cell_angle_alpha   90.00000000
_cell_angle_beta   90.00000000
_cell_angle_gamma   90.00000000
_symmetry_Int_Tables_number   1
_chemical_formula_structural   Li4TeF2
_chemical_formula_sum   'Li96 Te24 F48'
_cell_volume   3284.80783026
_cell_formula_units_Z   24
loop_
 _symmetry_equiv_pos_site_id
 _symmetry_equiv_pos_as_xyz
  1  'x, y, z'
loop_
 _atom_site_type_symbol
 _atom_site_label
 _atom_site_symmetry_multiplicity
 _atom_site_fract_x
 _atom_site_fract_y
 _atom_site_fract_z
 _atom_site_occupancy
  F  F0  1  0.65312161  0.65312161  0.00000000  1
  F  F1  1  0.34687839  0.34687839  -0.00000000  1
  F  F2  1  0.34687839  0.65312161  0.00000000  1
  F  F3  1  0.65312161  0.34687839  0.00000000  1
  F  F4  1  0.00000000  0.50000000  0.63620805  1
  F  F5  1  0.50000000  -0.00000000  0.63620805  1
  F  F6  1  0.00000000  0.50000000  0.36379195  1
  F  F7  1  0.50000000  -0.00000000  0.36379195  1
  F  F8  1  0.89639204  0.00000000  0.10446158  1
  F  F9  1  0.10360796  0.00000000  0.10446158  1
  F  F10  1  0.00000000  0.89639204  0.10446158  1
  F  F11  1  0.00000000  0.10360796  0.10446158  1
  F  F12  1  0.10360796  0.00000000  0.89553842  1
  F  F13  1  0.89639204  0.00000000  0.89553842  1
  F  F14  1  0.00000000  0.89639204  0.89553842  1
  F  F15  1  0.00000000  0.10360796  0.89553842  1
  F  F16  1  0.94692593  0.73635038  0.00000000  1
  F  F17  1  0.05307407  0.26364962  0.00000000  1
  F  F18  1  0.26364962  0.94692593  0.00000000  1
  F  F19  1  0.73635038  0.05307407  0.00000000  1
  F  F20  1  0.05307407  0.73635038  0.00000000  1
  F  F21  1  0.94692593  0.26364962  -0.00000000  1
  F  F22  1  0.73635038  0.94692593  0.00000000  1
  F  F23  1  0.26364962  0.05307407  0.00000000  1
  F  F24  1  0.00000000  0.50000000  0.00000000  1
  F  F25  1  0.50000000  -0.00000000  -0.00000000  1
  F  F26  1  0.50000000  0.50000000  0.58661918  1
  F  F27  1  0.50000000  0.50000000  0.41338082  1
  F  F28  1  0.12505943  0.00000000  0.50000000  1
  F  F29  1  0.87494057  0.00000000  0.50000000  1
  F  F30  1  0.00000000  0.12505943  0.50000000  1
  F  F31  1  0.00000000  0.87494057  0.50000000  1
  F  F32  1  0.87228472  0.87228472  0.12013513  1
  F  F33  1  0.12771528  0.12771528  0.12013513  1
  F  F34  1  0.12771528  0.87228472  0.12013513  1
  F  F35  1  0.87228472  0.12771528  0.12013513  1
  F  F36  1  0.12771528  0.87228472  0.87986487  1
  F  F37  1  0.87228472  0.12771528  0.87986487  1
  F  F38  1  0.87228472  0.87228472  0.87986487  1
  F  F39  1  0.12771528  0.12771528  0.87986487  1
  F  F40  1  0.09665915  0.85186622  -0.00000000  1
  F  F41  1  0.90334085  0.14813378  0.00000000  1
  F  F42  1  0.14813378  0.09665915  -0.00000000  1
  F  F43  1  0.85186622  0.90334085  0.00000000  1
  F  F44  1  0.90334085  0.85186622  0.00000000  1
  F  F45  1  0.09665915  0.14813378  -0.00000000  1
  F  F46  1  0.85186622  0.09665915  -0.00000000  1
  F  F47  1  0.14813378  0.90334085  0.00000000  1
  Li  Li48  1  0.31940010  0.31940010  0.24421564  1
  Li  Li49  1  0.68059990  0.68059990  0.24421564  1
  Li  Li50  1  0.68059990  0.31940010  0.24421564  1
  Li  Li51  1  0.31940010  0.68059990  0.24421564  1
  Li  Li52  1  0.68059990  0.31940010  0.75578436  1
  Li  Li53  1  0.31940010  0.68059990  0.75578436  1
  Li  Li54  1  0.31940010  0.31940010  0.75578436  1
  Li  Li55  1  0.68059990  0.68059990  0.75578436  1
  Li  Li56  1  0.33321812  -0.00000000  0.52461853  1
  Li  Li57  1  0.66678188  0.00000000  0.52461853  1
  Li  Li58  1  0.00000000  0.33321812  0.52461853  1
  Li  Li59  1  0.00000000  0.66678188  0.52461853  1
  Li  Li60  1  0.66678188  0.00000000  0.47538147  1
  Li  Li61  1  0.33321812  -0.00000000  0.47538147  1
  Li  Li62  1  0.00000000  0.33321812  0.47538147  1
  Li  Li63  1  0.00000000  0.66678188  0.47538147  1
  Li  Li64  1  0.71306322  0.55992710  0.37129223  1
  Li  Li65  1  0.28693678  0.44007290  0.37129223  1
  Li  Li66  1  0.44007290  0.71306322  0.37129223  1
  Li  Li67  1  0.55992710  0.28693678  0.37129223  1
  Li  Li68  1  0.28693678  0.55992710  0.62870777  1
  Li  Li69  1  0.71306322  0.44007290  0.62870777  1
  Li  Li70  1  0.55992710  0.71306322  0.62870777  1
  Li  Li71  1  0.44007290  0.28693678  0.62870777  1
  Li  Li72  1  0.28693678  0.44007290  0.62870777  1
  Li  Li73  1  0.71306322  0.55992710  0.62870777  1
  Li  Li74  1  0.55992710  0.28693678  0.62870777  1
  Li  Li75  1  0.44007290  0.71306322  0.62870777  1
  Li  Li76  1  0.71306322  0.44007290  0.37129223  1
  Li  Li77  1  0.28693678  0.55992710  0.37129223  1
  Li  Li78  1  0.44007290  0.28693678  0.37129223  1
  Li  Li79  1  0.55992710  0.71306322  0.37129223  1
  Li  Li80  1  0.31757700  0.20156785  0.62186345  1
  Li  Li81  1  0.68242300  0.79843215  0.62186345  1
  Li  Li82  1  0.79843215  0.31757700  0.62186345  1
  Li  Li83  1  0.20156785  0.68242300  0.62186345  1
  Li  Li84  1  0.68242300  0.20156785  0.37813655  1
  Li  Li85  1  0.31757700  0.79843215  0.37813655  1
  Li  Li86  1  0.20156785  0.31757700  0.37813655  1
  Li  Li87  1  0.79843215  0.68242300  0.37813655  1
  Li  Li88  1  0.68242300  0.79843215  0.37813655  1
  Li  Li89  1  0.31757700  0.20156785  0.37813655  1
  Li  Li90  1  0.20156785  0.68242300  0.37813655  1
  Li  Li91  1  0.79843215  0.31757700  0.37813655  1
  Li  Li92  1  0.31757700  0.79843215  0.62186345  1
  Li  Li93  1  0.68242300  0.20156785  0.62186345  1
  Li  Li94  1  0.79843215  0.68242300  0.62186345  1
  Li  Li95  1  0.20156785  0.31757700  0.62186345  1
  Li  Li96  1  0.64532649  0.50000000  0.69974462  1
  Li  Li97  1  0.35467351  0.50000000  0.69974462  1
  Li  Li98  1  0.50000000  0.64532649  0.69974462  1
  Li  Li99  1  0.50000000  0.35467351  0.69974462  1
  Li  Li100  1  0.35467351  0.50000000  0.30025538  1
  Li  Li101  1  0.64532649  0.50000000  0.30025538  1
  Li  Li102  1  0.50000000  0.64532649  0.30025538  1
  Li  Li103  1  0.50000000  0.35467351  0.30025538  1
  Li  Li104  1  0.42760363  0.42760363  0.36293319  1
  Li  Li105  1  0.57239637  0.57239637  0.36293319  1
  Li  Li106  1  0.57239637  0.42760363  0.36293319  1
  Li  Li107  1  0.42760363  0.57239637  0.36293319  1
  Li  Li108  1  0.57239637  0.42760363  0.63706681  1
  Li  Li109  1  0.42760363  0.57239637  0.63706681  1
  Li  Li110  1  0.42760363  0.42760363  0.63706681  1
  Li  Li111  1  0.57239637  0.57239637  0.63706681  1
  Li  Li112  1  0.64448326  -0.00000000  0.04653277  1
  Li  Li113  1  0.35551674  0.00000000  0.04653277  1
  Li  Li114  1  0.00000000  0.64448326  0.04653277  1
  Li  Li115  1  0.00000000  0.35551674  0.04653277  1
  Li  Li116  1  0.35551674  0.00000000  0.95346723  1
  Li  Li117  1  0.64448326  -0.00000000  0.95346723  1
  Li  Li118  1  0.00000000  0.64448326  0.95346723  1
  Li  Li119  1  0.00000000  0.35551674  0.95346723  1
  Li  Li120  1  0.92343904  0.92343904  0.08557456  1
  Li  Li121  1  0.07656096  0.07656096  0.08557456  1
  Li  Li122  1  0.07656096  0.92343904  0.08557456  1
  Li  Li123  1  0.92343904  0.07656096  0.08557456  1
  Li  Li124  1  0.07656096  0.92343904  0.91442544  1
  Li  Li125  1  0.92343904  0.07656096  0.91442544  1
  Li  Li126  1  0.92343904  0.92343904  0.91442544  1
  Li  Li127  1  0.07656096  0.07656096  0.91442544  1
  Li  Li128  1  0.88077450  0.29878566  0.27549129  1
  Li  Li129  1  0.11922550  0.70121434  0.27549129  1
  Li  Li130  1  0.70121434  0.88077450  0.27549129  1
  Li  Li131  1  0.29878566  0.11922550  0.27549129  1
  Li  Li132  1  0.11922550  0.29878566  0.72450871  1
  Li  Li133  1  0.88077450  0.70121434  0.72450871  1
  Li  Li134  1  0.29878566  0.88077450  0.72450871  1
  Li  Li135  1  0.70121434  0.11922550  0.72450871  1
  Li  Li136  1  0.11922550  0.70121434  0.72450871  1
  Li  Li137  1  0.88077450  0.29878566  0.72450871  1
  Li  Li138  1  0.29878566  0.11922550  0.72450871  1
  Li  Li139  1  0.70121434  0.88077450  0.72450871  1
  Li  Li140  1  0.88077450  0.70121434  0.27549129  1
  Li  Li141  1  0.11922550  0.29878566  0.27549129  1
  Li  Li142  1  0.70121434  0.11922550  0.27549129  1
  Li  Li143  1  0.29878566  0.88077450  0.27549129  1
  Te  Te144  1  0.40007556  0.40007556  0.56678331  1
  Te  Te145  1  0.59992444  0.59992444  0.56678331  1
  Te  Te146  1  0.59992444  0.40007556  0.56678331  1
  Te  Te147  1  0.40007556  0.59992444  0.56678331  1
  Te  Te148  1  0.59992444  0.40007556  0.43321669  1
  Te  Te149  1  0.40007556  0.59992444  0.43321669  1
  Te  Te150  1  0.40007556  0.40007556  0.43321669  1
  Te  Te151  1  0.59992444  0.59992444  0.43321669  1
  Te  Te152  1  0.43519671  0.25991582  0.73241930  1
  Te  Te153  1  -0.43519671  -0.25991582  0.73241930  1
  Te  Te154  1  -0.25991582  0.43519671  0.73241930  1
  Te  Te155  1  0.25991582  -0.43519671  0.73241930  1
  Te  Te156  1  -0.43519671  0.25991582  -0.73241930  1
  Te  Te157  1  0.43519671  -0.25991582  -0.73241930  1
  Te  Te158  1  0.25991582  0.43519671  -0.73241930  1
  Te  Te159  1  -0.25991582  -0.43519671  -0.73241930  1
  Te  Te160  1  -0.43519671  -0.25991582  -0.73241930  1
  Te  Te161  1  0.43519671  0.25991582  -0.73241930  1
  Te  Te162  1  0.25991582  -0.43519671  -0.73241930  1
  Te  Te163  1  -0.25991582  0.43519671  -0.73241930  1
  Te  Te164  1  0.43519671  -0.25991582  0.73241930  1
  Te  Te165  1  -0.43519671  0.25991582  0.73241930  1
  Te  Te166  1  -0.25991582  -0.43519671  0.73241930  1
  Te  Te167  1  0.25991582  0.43519671  0.73241930  1
