# generated using pymatgen
data_LiCaF3
_symmetry_space_group_name_H-M   'P 1'
_cell_length_a   10.49816853
_cell_length_b   14.65204941
_cell_length_c   9.97287352
_cell_angle_alpha   90.00000000
_cell_angle_beta   90.00000000
_cell_angle_gamma   90.00000000
_symmetry_Int_Tables_number   1
_chemical_formula_structural   LiCaF3
_chemical_formula_sum   'Li18 Ca18 F54'
_cell_volume   1534.02425446
_cell_formula_units_Z   18
loop_
 _symmetry_equiv_pos_site_id
 _symmetry_equiv_pos_as_xyz
  1  'x, y, z'
loop_
 _atom_site_type_symbol
 _atom_site_label
 _atom_site_symmetry_multiplicity
 _atom_site_fract_x
 _atom_site_fract_y
 _atom_site_fract_z
 _atom_site_occupancy
  Ca  Ca0  1  0.31173378  0.91721849  0.70265007  1
  Ca  Ca1  1  -0.31173378  -0.91721849  0.70265007  1
  Ca  Ca2  1  0.18826622  1.41721849  -0.70265007  1
  Ca  Ca3  1  0.81173378  -0.41721849  -0.70265007  1
  Ca  Ca4  1  -0.31173378  -0.91721849  -0.70265007  1
  Ca  Ca5  1  0.31173378  0.91721849  -0.70265007  1
  Ca  Ca6  1  0.81173378  -0.41721849  0.70265007  1
  Ca  Ca7  1  0.18826622  1.41721849  0.70265007  1
  Ca  Ca8  1  0.57543908  0.93501882  -0.00000000  1
  Ca  Ca9  1  0.42456092  0.06498118  0.00000000  1
  Ca  Ca10  1  0.92456092  0.43501882  0.00000000  1
  Ca  Ca11  1  0.07543908  0.56498118  0.00000000  1
  Ca  Ca12  1  0.81126218  0.14175220  0.00000000  1
  Ca  Ca13  1  0.18873782  0.85824780  0.00000000  1
  Ca  Ca14  1  0.68873782  0.64175220  0.00000000  1
  Ca  Ca15  1  0.31126218  0.35824780  -0.00000000  1
  Ca  Ca16  1  0.00000000  0.00000000  0.50000000  1
  Ca  Ca17  1  0.50000000  0.50000000  0.50000000  1
  F  F18  1  0.08025959  0.93103370  -0.00000000  1
  F  F19  1  0.91974041  0.06896630  -0.00000000  1
  F  F20  1  0.41974041  0.43103370  0.00000000  1
  F  F21  1  0.58025959  0.56896630  0.00000000  1
  F  F22  1  0.22173381  0.58272412  0.88144801  1
  F  F23  1  0.77826619  0.41727588  0.88144801  1
  F  F24  1  0.27826619  0.08272412  0.11855199  1
  F  F25  1  0.72173381  0.91727588  0.11855199  1
  F  F26  1  0.77826619  0.41727588  0.11855199  1
  F  F27  1  0.22173381  0.58272412  0.11855199  1
  F  F28  1  0.72173381  0.91727588  0.88144801  1
  F  F29  1  0.27826619  0.08272412  0.88144801  1
  F  F30  1  0.00000000  0.00000000  0.00000000  1
  F  F31  1  0.50000000  0.50000000  0.00000000  1
  F  F32  1  0.00000000  0.50000000  0.79318425  1
  F  F33  1  0.50000000  0.00000000  0.20681575  1
  F  F34  1  0.00000000  0.50000000  0.20681575  1
  F  F35  1  0.50000000  0.00000000  0.79318425  1
  F  F36  1  0.31977906  0.03108169  0.93314138  1
  F  F37  1  0.68022094  0.96891831  0.93314138  1
  F  F38  1  0.18022094  0.53108169  0.06685862  1
  F  F39  1  0.81977906  0.46891831  0.06685862  1
  F  F40  1  0.68022094  0.96891831  0.06685862  1
  F  F41  1  0.31977906  0.03108169  0.06685862  1
  F  F42  1  0.81977906  0.46891831  0.93314138  1
  F  F43  1  0.18022094  0.53108169  0.93314138  1
  F  F44  1  0.30927393  0.42210773  0.12764714  1
  F  F45  1  0.69072607  0.57789227  0.12764714  1
  F  F46  1  0.19072607  0.92210773  0.87235286  1
  F  F47  1  0.80927393  0.07789227  0.87235286  1
  F  F48  1  0.69072607  0.57789227  0.87235286  1
  F  F49  1  0.30927393  0.42210773  0.87235286  1
  F  F50  1  0.80927393  0.07789227  0.12764714  1
  F  F51  1  0.19072607  0.92210773  0.12764714  1
  F  F52  1  0.61586657  0.58042215  0.72225155  1
  F  F53  1  0.38413343  0.41957785  0.72225155  1
  F  F54  1  0.88413343  0.08042215  0.27774845  1
  F  F55  1  0.11586657  0.91957785  0.27774845  1
  F  F56  1  0.38413343  0.41957785  0.27774845  1
  F  F57  1  0.61586657  0.58042215  0.27774845  1
  F  F58  1  0.11586657  0.91957785  0.72225155  1
  F  F59  1  0.88413343  0.08042215  0.72225155  1
  F  F60  1  0.00000000  0.00000000  0.71322732  1
  F  F61  1  0.50000000  0.50000000  0.28677268  1
  F  F62  1  0.00000000  0.00000000  0.28677268  1
  F  F63  1  0.50000000  0.50000000  0.71322732  1
  F  F64  1  0.20970366  0.01214250  0.69788145  1
  F  F65  1  0.79029634  0.98785750  0.69788145  1
  F  F66  1  0.29029634  0.51214250  0.30211855  1
  F  F67  1  0.70970366  0.48785750  0.30211855  1
  F  F68  1  0.79029634  0.98785750  0.30211855  1
  F  F69  1  0.20970366  0.01214250  0.30211855  1
  F  F70  1  0.70970366  0.48785750  0.69788145  1
  F  F71  1  0.29029634  0.51214250  0.69788145  1
  Li  Li72  1  0.79915948  0.35002589  0.88302705  1
  Li  Li73  1  0.20084052  0.64997411  0.88302705  1
  Li  Li74  1  0.70084052  0.85002589  0.11697295  1
  Li  Li75  1  0.29915948  0.14997411  0.11697295  1
  Li  Li76  1  0.20084052  0.64997411  0.11697295  1
  Li  Li77  1  0.79915948  0.35002589  0.11697295  1
  Li  Li78  1  0.29915948  0.14997411  0.88302705  1
  Li  Li79  1  0.70084052  0.85002589  0.88302705  1
  Li  Li80  1  0.43067700  0.13662783  0.68696493  1
  Li  Li81  1  0.56932300  0.86337217  0.68696493  1
  Li  Li82  1  0.06932300  0.63662783  0.31303507  1
  Li  Li83  1  0.93067700  0.36337217  0.31303507  1
  Li  Li84  1  0.56932300  0.86337217  0.31303507  1
  Li  Li85  1  0.43067700  0.13662783  0.31303507  1
  Li  Li86  1  0.93067700  0.36337217  0.68696493  1
  Li  Li87  1  0.06932300  0.63662783  0.68696493  1
  Li  Li88  1  0.00000000  0.50000000  0.50000000  1
  Li  Li89  1  0.50000000  0.00000000  0.50000000  1
