# generated using pymatgen
data_Li3Y2MoP3Se
_symmetry_space_group_name_H-M   'P 1'
_cell_length_a   5.50425341
_cell_length_b   5.85597900
_cell_length_c   7.14383248
_cell_angle_alpha   93.31804542
_cell_angle_beta   97.58585861
_cell_angle_gamma   103.76176257
_symmetry_Int_Tables_number   1
_chemical_formula_structural   Li3Y2MoP3Se
_chemical_formula_sum   'Li3 Y2 Mo1 P3 Se1'
_cell_volume   220.74280967
_cell_formula_units_Z   1
loop_
 _symmetry_equiv_pos_site_id
 _symmetry_equiv_pos_as_xyz
  1  'x, y, z'
loop_
 _atom_site_type_symbol
 _atom_site_label
 _atom_site_symmetry_multiplicity
 _atom_site_fract_x
 _atom_site_fract_y
 _atom_site_fract_z
 _atom_site_occupancy
  Se  Se0  1  0.00000000  0.00000000  0.00000000  1
  Y  Y1  1  0.50000000  0.50000000  0.50000000  1
  Y  Y2  1  0.50000000  0.50000000  0.00000000  1
  P  P3  1  0.50000000  0.00000000  0.50000000  1
  P  P4  1  0.00000000  0.50000000  0.50000000  1
  P  P5  1  0.94606677  0.33715621  0.12929230  1
  Mo  Mo6  1  0.07670599  0.89103647  0.54430926  1
  Li  Li7  1  0.58849463  0.03896122  0.63804429  1
  Li  Li8  1  0.32216922  0.64348765  0.75726347  1
  Li  Li9  1  0.03109427  0.65928976  0.79062938  1
