# generated using pymatgen
data_Li2Y2Mo(As2P)2
_symmetry_space_group_name_H-M   'P 1'
_cell_length_a   5.16199271
_cell_length_b   5.33909293
_cell_length_c   7.03357355
_cell_angle_alpha   94.57298813
_cell_angle_beta   99.95901743
_cell_angle_gamma   108.36787580
_symmetry_Int_Tables_number   1
_chemical_formula_structural   Li2Y2Mo(As2P)2
_chemical_formula_sum   'Li2 Y2 Mo1 As4 P2'
_cell_volume   179.32179714
_cell_formula_units_Z   1
loop_
 _symmetry_equiv_pos_site_id
 _symmetry_equiv_pos_as_xyz
  1  'x, y, z'
loop_
 _atom_site_type_symbol
 _atom_site_label
 _atom_site_symmetry_multiplicity
 _atom_site_fract_x
 _atom_site_fract_y
 _atom_site_fract_z
 _atom_site_occupancy
  Y  Y0  1  0.12500000  0.00000000  0.25000000  1
  Y  Y1  1  0.00000000  0.00000000  0.00000000  1
  P  P2  1  0.37500000  0.00000000  0.25000000  1
  P  P3  1  0.25000000  0.25000000  0.25000000  1
  Mo  Mo4  1  0.00000000  0.25000000  0.12500000  1
  As  As5  1  0.07833788  0.70777487  0.21715822  1
  As  As6  1  0.79274759  0.54740862  0.53216586  1
  As  As7  1  0.34173371  0.51405696  0.91797788  1
  As  As8  1  0.43417703  0.97028226  0.19034822  1
  Li  Li9  1  0.73670517  0.89212286  0.39264386  1
  Li  Li10  1  0.74023278  0.25971615  0.27416974  1
