# generated using pymatgen
data_LiF
_symmetry_space_group_name_H-M   'P 1'
_cell_length_a   13.70308020
_cell_length_b   13.43664194
_cell_length_c   15.30360702
_cell_angle_alpha   90.00000000
_cell_angle_beta   90.00000000
_cell_angle_gamma   90.00000000
_symmetry_Int_Tables_number   1
_chemical_formula_structural   LiF
_chemical_formula_sum   'Li82 F82'
_cell_volume   2817.75188380
_cell_formula_units_Z   82
loop_
 _symmetry_equiv_pos_site_id
 _symmetry_equiv_pos_as_xyz
  1  'x, y, z'
loop_
 _atom_site_type_symbol
 _atom_site_label
 _atom_site_symmetry_multiplicity
 _atom_site_fract_x
 _atom_site_fract_y
 _atom_site_fract_z
 _atom_site_occupancy
  F  F0  1  0.74822833  0.60165791  0.89291413  1
  F  F1  1  0.25177167  0.39834209  0.89291413  1
  F  F2  1  0.75177167  0.10165791  0.10708587  1
  F  F3  1  0.24822833  0.89834209  0.10708587  1
  F  F4  1  0.25177167  0.39834209  0.10708587  1
  F  F5  1  0.74822833  0.60165791  0.10708587  1
  F  F6  1  0.24822833  0.89834209  0.89291413  1
  F  F7  1  0.75177167  0.10165791  0.89291413  1
  F  F8  1  0.62169787  0.99120987  0.00000000  1
  F  F9  1  0.37830213  0.00879013  0.00000000  1
  F  F10  1  0.87830213  0.49120987  0.00000000  1
  F  F11  1  0.12169787  0.50879013  0.00000000  1
  F  F12  1  0.93734447  0.68034415  0.95083709  1
  F  F13  1  0.06265553  0.31965585  0.95083709  1
  F  F14  1  0.56265553  0.18034415  0.04916291  1
  F  F15  1  0.43734447  0.81965585  0.04916291  1
  F  F16  1  0.06265553  0.31965585  0.04916291  1
  F  F17  1  0.93734447  0.68034415  0.04916291  1
  F  F18  1  0.43734447  0.81965585  0.95083709  1
  F  F19  1  0.56265553  0.18034415  0.95083709  1
  F  F20  1  0.56254549  0.40817484  0.29672919  1
  F  F21  1  0.43745451  0.59182516  0.29672919  1
  F  F22  1  0.93745451  0.90817484  0.70327081  1
  F  F23  1  0.06254549  0.09182516  0.70327081  1
  F  F24  1  0.43745451  0.59182516  0.70327081  1
  F  F25  1  0.56254549  0.40817484  0.70327081  1
  F  F26  1  0.06254549  0.09182516  0.29672919  1
  F  F27  1  0.93745451  0.90817484  0.29672919  1
  F  F28  1  0.01452587  0.95765618  0.12102279  1
  F  F29  1  0.98547413  0.04234382  0.12102279  1
  F  F30  1  0.48547413  0.45765618  0.87897721  1
  F  F31  1  0.51452587  0.54234382  0.87897721  1
  F  F32  1  0.98547413  0.04234382  0.87897721  1
  F  F33  1  0.01452587  0.95765618  0.87897721  1
  F  F34  1  0.51452587  0.54234382  0.12102279  1
  F  F35  1  0.48547413  0.45765618  0.12102279  1
  F  F36  1  0.06536844  0.26810301  0.00000000  1
  F  F37  1  0.93463156  0.73189699  0.00000000  1
  F  F38  1  0.43463156  0.76810301  0.00000000  1
  F  F39  1  0.56536844  0.23189699  0.00000000  1
  F  F40  1  0.56761299  0.91376687  0.02475571  1
  F  F41  1  0.43238701  0.08623313  0.02475571  1
  F  F42  1  0.93238701  0.41376687  0.97524429  1
  F  F43  1  0.06761299  0.58623313  0.97524429  1
  F  F44  1  0.43238701  0.08623313  0.97524429  1
  F  F45  1  0.56761299  0.91376687  0.97524429  1
  F  F46  1  0.06761299  0.58623313  0.02475571  1
  F  F47  1  0.93238701  0.41376687  0.02475571  1
  F  F48  1  0.00000000  0.50000000  0.29745181  1
  F  F49  1  0.50000000  0.00000000  0.70254819  1
  F  F50  1  0.00000000  0.50000000  0.70254819  1
  F  F51  1  0.50000000  0.00000000  0.29745181  1
  F  F52  1  0.62610528  0.32048790  0.77300586  1
  F  F53  1  0.37389472  0.67951210  0.77300586  1
  F  F54  1  0.87389472  0.82048790  0.22699414  1
  F  F55  1  0.12610528  0.17951210  0.22699414  1
  F  F56  1  0.37389472  0.67951210  0.22699414  1
  F  F57  1  0.62610528  0.32048790  0.22699414  1
  F  F58  1  0.12610528  0.17951210  0.77300586  1
  F  F59  1  0.87389472  0.82048790  0.77300586  1
  F  F60  1  0.37397792  0.37198634  0.39994522  1
  F  F61  1  0.62602208  0.62801366  0.39994522  1
  F  F62  1  0.12602208  0.87198634  0.60005478  1
  F  F63  1  0.87397792  0.12801366  0.60005478  1
  F  F64  1  0.62602208  0.62801366  0.60005478  1
  F  F65  1  0.37397792  0.37198634  0.60005478  1
  F  F66  1  0.87397792  0.12801366  0.39994522  1
  F  F67  1  0.12602208  0.87198634  0.39994522  1
  F  F68  1  0.69207324  0.58963639  0.50000000  1
  F  F69  1  0.30792676  0.41036361  0.50000000  1
  F  F70  1  0.80792676  0.08963639  0.50000000  1
  F  F71  1  0.19207324  0.91036361  0.50000000  1
  F  F72  1  0.03694554  0.12032781  0.96583597  1
  F  F73  1  0.96305446  0.87967219  0.96583597  1
  F  F74  1  0.46305446  0.62032781  0.03416403  1
  F  F75  1  0.53694554  0.37967219  0.03416403  1
  F  F76  1  0.96305446  0.87967219  0.03416403  1
  F  F77  1  0.03694554  0.12032781  0.03416403  1
  F  F78  1  0.53694554  0.37967219  0.96583597  1
  F  F79  1  0.46305446  0.62032781  0.96583597  1
  F  F80  1  0.00000000  0.00000000  0.50000000  1
  F  F81  1  0.50000000  0.50000000  0.50000000  1
  Li  Li82  1  0.31024336  0.81863595  0.00000000  1
  Li  Li83  1  0.68975664  0.18136405  0.00000000  1
  Li  Li84  1  0.18975664  0.31863595  0.00000000  1
  Li  Li85  1  0.81024336  0.68136405  0.00000000  1
  Li  Li86  1  0.00000000  0.50000000  0.00000000  1
  Li  Li87  1  0.50000000  0.00000000  0.00000000  1
  Li  Li88  1  0.17306655  0.30523113  0.50000000  1
  Li  Li89  1  0.82693345  0.69476887  0.50000000  1
  Li  Li90  1  0.32693345  0.80523113  0.50000000  1
  Li  Li91  1  0.67306655  0.19476887  0.50000000  1
  Li  Li92  1  0.79278814  0.58199563  0.82256379  1
  Li  Li93  1  -0.79278814  -0.58199563  0.82256379  1
  Li  Li94  1  -0.29278814  1.08199563  -0.82256379  1
  Li  Li95  1  1.29278814  -0.08199563  -0.82256379  1
  Li  Li96  1  -0.79278814  -0.58199563  -0.82256379  1
  Li  Li97  1  0.79278814  0.58199563  -0.82256379  1
  Li  Li98  1  1.29278814  -0.08199563  0.82256379  1
  Li  Li99  1  -0.29278814  1.08199563  0.82256379  1
  Li  Li100  1  0.50450467  0.84648272  0.40867020  1
  Li  Li101  1  0.49549533  0.15351728  0.40867020  1
  Li  Li102  1  0.99549533  0.34648272  0.59132980  1
  Li  Li103  1  0.00450467  0.65351728  0.59132980  1
  Li  Li104  1  0.49549533  0.15351728  0.59132980  1
  Li  Li105  1  0.50450467  0.84648272  0.59132980  1
  Li  Li106  1  0.00450467  0.65351728  0.40867020  1
  Li  Li107  1  0.99549533  0.34648272  0.40867020  1
  Li  Li108  1  0.00000000  0.00000000  0.00000000  1
  Li  Li109  1  0.50000000  0.50000000  0.00000000  1
  Li  Li110  1  0.88549565  0.05738140  0.78470280  1
  Li  Li111  1  0.11450435  0.94261860  0.78470280  1
  Li  Li112  1  0.61450435  0.55738140  0.21529720  1
  Li  Li113  1  0.38549565  0.44261860  0.21529720  1
  Li  Li114  1  0.11450435  0.94261860  0.21529720  1
  Li  Li115  1  0.88549565  0.05738140  0.21529720  1
  Li  Li116  1  0.38549565  0.44261860  0.78470280  1
  Li  Li117  1  0.61450435  0.55738140  0.78470280  1
  Li  Li118  1  0.31289091  0.86098302  0.89305546  1
  Li  Li119  1  0.68710909  0.13901698  0.89305546  1
  Li  Li120  1  0.18710909  0.36098302  0.10694454  1
  Li  Li121  1  0.81289091  0.63901698  0.10694454  1
  Li  Li122  1  0.68710909  0.13901698  0.10694454  1
  Li  Li123  1  0.31289091  0.86098302  0.10694454  1
  Li  Li124  1  0.81289091  0.63901698  0.89305546  1
  Li  Li125  1  0.18710909  0.36098302  0.89305546  1
  Li  Li126  1  0.59203772  0.93363332  0.50000000  1
  Li  Li127  1  0.40796228  0.06636668  0.50000000  1
  Li  Li128  1  0.90796228  0.43363332  0.50000000  1
  Li  Li129  1  0.09203772  0.56636668  0.50000000  1
  Li  Li130  1  0.31064155  0.85791095  0.33952119  1
  Li  Li131  1  0.68935845  0.14208905  0.33952119  1
  Li  Li132  1  0.18935845  0.35791095  0.66047881  1
  Li  Li133  1  0.81064155  0.64208905  0.66047881  1
  Li  Li134  1  0.68935845  0.14208905  0.66047881  1
  Li  Li135  1  0.31064155  0.85791095  0.66047881  1
  Li  Li136  1  0.81064155  0.64208905  0.33952119  1
  Li  Li137  1  0.18935845  0.35791095  0.33952119  1
  Li  Li138  1  0.32476565  0.74690468  0.70722158  1
  Li  Li139  1  0.67523435  0.25309532  0.70722158  1
  Li  Li140  1  0.17523435  0.24690468  0.29277842  1
  Li  Li141  1  0.82476565  0.75309532  0.29277842  1
  Li  Li142  1  0.67523435  0.25309532  0.29277842  1
  Li  Li143  1  0.32476565  0.74690468  0.29277842  1
  Li  Li144  1  0.82476565  0.75309532  0.70722158  1
  Li  Li145  1  0.17523435  0.24690468  0.70722158  1
  Li  Li146  1  0.92224711  0.58445799  0.00000000  1
  Li  Li147  1  0.07775289  0.41554201  0.00000000  1
  Li  Li148  1  0.57775289  0.08445799  -0.00000000  1
  Li  Li149  1  0.42224711  0.91554201  0.00000000  1
  Li  Li150  1  0.62899909  0.42700184  0.19250472  1
  Li  Li151  1  0.37100091  0.57299816  0.19250472  1
  Li  Li152  1  0.87100091  0.92700184  0.80749528  1
  Li  Li153  1  0.12899909  0.07299816  0.80749528  1
  Li  Li154  1  0.37100091  0.57299816  0.80749528  1
  Li  Li155  1  0.62899909  0.42700184  0.80749528  1
  Li  Li156  1  0.12899909  0.07299816  0.19250472  1
  Li  Li157  1  0.87100091  0.92700184  0.19250472  1
  Li  Li158  1  0.00000000  0.50000000  0.50000000  1
  Li  Li159  1  0.50000000  0.00000000  0.50000000  1
  Li  Li160  1  0.69887915  0.30021903  0.00000000  1
  Li  Li161  1  0.30112085  0.69978097  0.00000000  1
  Li  Li162  1  0.80112085  0.80021903  0.00000000  1
  Li  Li163  1  0.19887915  0.19978097  0.00000000  1
