# generated using pymatgen
data_LiYAs2P
_symmetry_space_group_name_H-M   'P 1'
_cell_length_a   4.34823544
_cell_length_b   4.54644649
_cell_length_c   6.79073925
_cell_angle_alpha   95.96875624
_cell_angle_beta   102.99871021
_cell_angle_gamma   113.97412158
_symmetry_Int_Tables_number   1
_chemical_formula_structural   LiYAs2P
_chemical_formula_sum   'Li2 Y2 As4 P2'
_cell_volume   116.60793826
_cell_formula_units_Z   2
loop_
 _symmetry_equiv_pos_site_id
 _symmetry_equiv_pos_as_xyz
  1  'x, y, z'
loop_
 _atom_site_type_symbol
 _atom_site_label
 _atom_site_symmetry_multiplicity
 _atom_site_fract_x
 _atom_site_fract_y
 _atom_site_fract_z
 _atom_site_occupancy
  P  P0  1  0.12500000  0.12500000  0.12500000  1
  P  P1  1  0.50000000  0.50000000  0.50000000  1
  As  As2  1  0.25000000  0.25000000  0.25000000  1
  As  As3  1  0.75000000  0.75000000  0.75000000  1
  As  As4  1  0.13526213  0.00793880  0.35279897  1
  As  As5  1  0.94797925  0.04315815  0.39449184  1
  Li  Li6  1  0.81883495  0.97202726  0.25298196  1
  Li  Li7  1  0.42435449  0.65939267  0.31494687  1
  Y  Y8  1  0.31390831  0.96436615  0.11769313  1
  Y  Y9  1  0.62329098  0.71837371  0.48595921  1
