# generated using pymatgen
data_LiF
_symmetry_space_group_name_H-M   'P 1'
_cell_length_a   4.97358848
_cell_length_b   14.77543723
_cell_length_c   11.14176849
_cell_angle_alpha   90.00000000
_cell_angle_beta   90.00000000
_cell_angle_gamma   90.00000000
_symmetry_Int_Tables_number   1
_chemical_formula_structural   LiF
_chemical_formula_sum   'Li30 F30'
_cell_volume   818.77452208
_cell_formula_units_Z   30
loop_
 _symmetry_equiv_pos_site_id
 _symmetry_equiv_pos_as_xyz
  1  'x, y, z'
loop_
 _atom_site_type_symbol
 _atom_site_label
 _atom_site_symmetry_multiplicity
 _atom_site_fract_x
 _atom_site_fract_y
 _atom_site_fract_z
 _atom_site_occupancy
  F  F0  1  0.56653663  0.03280860  0.32317639  1
  F  F1  1  0.43346337  0.96719140  0.32317639  1
  F  F2  1  0.93346337  0.53280860  0.67682361  1
  F  F3  1  0.06653663  0.46719140  0.67682361  1
  F  F4  1  0.43346337  0.96719140  0.67682361  1
  F  F5  1  0.56653663  0.03280860  0.67682361  1
  F  F6  1  0.06653663  0.46719140  0.32317639  1
  F  F7  1  0.93346337  0.53280860  0.32317639  1
  F  F8  1  0.79628412  0.53347412  0.44297222  1
  F  F9  1  0.20371588  0.46652588  0.44297222  1
  F  F10  1  0.70371588  0.03347412  0.55702778  1
  F  F11  1  0.29628412  0.96652588  0.55702778  1
  F  F12  1  0.20371588  0.46652588  0.55702778  1
  F  F13  1  0.79628412  0.53347412  0.55702778  1
  F  F14  1  0.29628412  0.96652588  0.44297222  1
  F  F15  1  0.70371588  0.03347412  0.44297222  1
  F  F16  1  0.70796568  0.81640088  0.83011778  1
  F  F17  1  0.29203432  0.18359912  0.83011778  1
  F  F18  1  0.79203432  0.31640088  0.16988222  1
  F  F19  1  0.20796568  0.68359912  0.16988222  1
  F  F20  1  0.29203432  0.18359912  0.16988222  1
  F  F21  1  0.70796568  0.81640088  0.16988222  1
  F  F22  1  0.20796568  0.68359912  0.83011778  1
  F  F23  1  0.79203432  0.31640088  0.83011778  1
  F  F24  1  0.00000000  0.50000000  0.50000000  1
  F  F25  1  0.50000000  0.00000000  0.50000000  1
  F  F26  1  0.75759017  0.71352130  0.50000000  1
  F  F27  1  0.24240983  0.28647870  0.50000000  1
  F  F28  1  0.74240983  0.21352130  0.50000000  1
  F  F29  1  0.25759017  0.78647870  0.50000000  1
  Li  Li30  1  0.00000000  0.00000000  0.50000000  1
  Li  Li31  1  0.50000000  0.50000000  0.50000000  1
  Li  Li32  1  0.05542101  0.20254566  0.50000000  1
  Li  Li33  1  0.94457899  0.79745434  0.50000000  1
  Li  Li34  1  0.44457899  0.70254566  0.50000000  1
  Li  Li35  1  0.55542101  0.29745434  0.50000000  1
  Li  Li36  1  0.00000000  0.50000000  0.40876675  1
  Li  Li37  1  0.50000000  0.00000000  0.59123325  1
  Li  Li38  1  0.00000000  0.50000000  0.59123325  1
  Li  Li39  1  0.50000000  0.00000000  0.40876675  1
  Li  Li40  1  0.00000000  0.50000000  0.00000000  1
  Li  Li41  1  0.50000000  0.00000000  0.00000000  1
  Li  Li42  1  0.64622000  0.70445126  0.86614910  1
  Li  Li43  1  -0.64622000  -0.70445126  0.86614910  1
  Li  Li44  1  -0.14622000  1.20445126  -0.86614910  1
  Li  Li45  1  1.14622000  -0.20445126  -0.86614910  1
  Li  Li46  1  -0.64622000  -0.70445126  -0.86614910  1
  Li  Li47  1  0.64622000  0.70445126  -0.86614910  1
  Li  Li48  1  1.14622000  -0.20445126  0.86614910  1
  Li  Li49  1  -0.14622000  1.20445126  0.86614910  1
  Li  Li50  1  0.72937991  0.37383251  0.50000000  1
  Li  Li51  1  0.27062009  0.62616749  0.50000000  1
  Li  Li52  1  0.77062009  0.87383251  0.50000000  1
  Li  Li53  1  0.22937991  0.12616749  0.50000000  1
  Li  Li54  1  0.86059192  0.20125504  0.00000000  1
  Li  Li55  1  0.13940808  0.79874496  0.00000000  1
  Li  Li56  1  0.63940808  0.70125504  0.00000000  1
  Li  Li57  1  0.36059192  0.29874496  -0.00000000  1
  Li  Li58  1  0.00000000  0.00000000  0.00000000  1
  Li  Li59  1  0.50000000  0.50000000  0.00000000  1
