# generated using pymatgen
data_LiF
_symmetry_space_group_name_H-M   'P 1'
_cell_length_a   9.49377046
_cell_length_b   4.06232969
_cell_length_c   7.37302585
_cell_angle_alpha   90.00000000
_cell_angle_beta   90.00000000
_cell_angle_gamma   90.00000000
_symmetry_Int_Tables_number   1
_chemical_formula_structural   LiF
_chemical_formula_sum   'Li18 F18'
_cell_volume   284.35420251
_cell_formula_units_Z   18
loop_
 _symmetry_equiv_pos_site_id
 _symmetry_equiv_pos_as_xyz
  1  'x, y, z'
loop_
 _atom_site_type_symbol
 _atom_site_label
 _atom_site_symmetry_multiplicity
 _atom_site_fract_x
 _atom_site_fract_y
 _atom_site_fract_z
 _atom_site_occupancy
  F  F0  1  0.96848658  0.26063769  0.40145109  1
  F  F1  1  0.03151342  0.73936231  0.40145109  1
  F  F2  1  0.53151342  0.76063769  0.59854891  1
  F  F3  1  0.46848658  0.23936231  0.59854891  1
  F  F4  1  0.03151342  0.73936231  0.59854891  1
  F  F5  1  0.96848658  0.26063769  0.59854891  1
  F  F6  1  0.46848658  0.23936231  0.40145109  1
  F  F7  1  0.53151342  0.76063769  0.40145109  1
  F  F8  1  0.00000000  0.50000000  0.00000000  1
  F  F9  1  0.50000000  0.00000000  0.00000000  1
  F  F10  1  0.39182984  0.73861038  0.91473723  1
  F  F11  1  0.60817016  0.26138962  0.91473723  1
  F  F12  1  0.10817016  0.23861038  0.08526277  1
  F  F13  1  0.89182984  0.76138962  0.08526277  1
  F  F14  1  0.60817016  0.26138962  0.08526277  1
  F  F15  1  0.39182984  0.73861038  0.08526277  1
  F  F16  1  0.89182984  0.76138962  0.91473723  1
  F  F17  1  0.10817016  0.23861038  0.91473723  1
  Li  Li18  1  0.00000000  0.50000000  0.50000000  1
  Li  Li19  1  0.50000000  0.00000000  0.50000000  1
  Li  Li20  1  0.91954093  0.79841074  0.66255248  1
  Li  Li21  1  -0.91954093  -0.79841074  0.66255248  1
  Li  Li22  1  -0.41954093  1.29841074  -0.66255248  1
  Li  Li23  1  1.41954093  -0.29841074  -0.66255248  1
  Li  Li24  1  -0.91954093  -0.79841074  -0.66255248  1
  Li  Li25  1  0.91954093  0.79841074  -0.66255248  1
  Li  Li26  1  1.41954093  -0.29841074  0.66255248  1
  Li  Li27  1  -0.41954093  1.29841074  0.66255248  1
  Li  Li28  1  0.18272602  0.79978944  0.50000000  1
  Li  Li29  1  0.81727398  0.20021056  0.50000000  1
  Li  Li30  1  0.31727398  0.29978944  0.50000000  1
  Li  Li31  1  0.68272602  0.70021056  0.50000000  1
  Li  Li32  1  0.04325549  0.75699472  0.00000000  1
  Li  Li33  1  0.95674451  0.24300528  0.00000000  1
  Li  Li34  1  0.45674451  0.25699472  0.00000000  1
  Li  Li35  1  0.54325549  0.74300528  0.00000000  1
