# generated using pymatgen
data_Li4TeF2
_symmetry_space_group_name_H-M   'P 1'
_cell_length_a   22.43756655
_cell_length_b   22.43756655
_cell_length_c   5.56319362
_cell_angle_alpha   90.00000000
_cell_angle_beta   90.00000000
_cell_angle_gamma   90.00000000
_symmetry_Int_Tables_number   1
_chemical_formula_structural   Li4TeF2
_chemical_formula_sum   'Li96 Te24 F48'
_cell_volume   2800.75863274
_cell_formula_units_Z   24
loop_
 _symmetry_equiv_pos_site_id
 _symmetry_equiv_pos_as_xyz
  1  'x, y, z'
loop_
 _atom_site_type_symbol
 _atom_site_label
 _atom_site_symmetry_multiplicity
 _atom_site_fract_x
 _atom_site_fract_y
 _atom_site_fract_z
 _atom_site_occupancy
  F  F0  1  0.50000000  0.50000000  0.50000000  1
  F  F1  1  0.40553685  0.00000000  0.06049117  1
  F  F2  1  0.59446315  0.00000000  0.06049117  1
  F  F3  1  0.00000000  0.40553685  0.06049117  1
  F  F4  1  0.00000000  0.59446315  0.06049117  1
  F  F5  1  0.59446315  0.00000000  0.93950883  1
  F  F6  1  0.40553685  0.00000000  0.93950883  1
  F  F7  1  0.00000000  0.40553685  0.93950883  1
  F  F8  1  0.00000000  0.59446315  0.93950883  1
  F  F9  1  0.06884532  0.06884532  0.50000000  1
  F  F10  1  0.93115468  0.93115468  0.50000000  1
  F  F11  1  0.93115468  0.06884532  0.50000000  1
  F  F12  1  0.06884532  0.93115468  0.50000000  1
  F  F13  1  0.38611028  0.34916847  0.13069839  1
  F  F14  1  -0.38611028  -0.34916847  0.13069839  1
  F  F15  1  -0.34916847  0.38611028  0.13069839  1
  F  F16  1  0.34916847  -0.38611028  0.13069839  1
  F  F17  1  -0.38611028  0.34916847  -0.13069839  1
  F  F18  1  0.38611028  -0.34916847  -0.13069839  1
  F  F19  1  0.34916847  0.38611028  -0.13069839  1
  F  F20  1  -0.34916847  -0.38611028  -0.13069839  1
  F  F21  1  -0.38611028  -0.34916847  -0.13069839  1
  F  F22  1  0.38611028  0.34916847  -0.13069839  1
  F  F23  1  0.34916847  -0.38611028  -0.13069839  1
  F  F24  1  -0.34916847  0.38611028  -0.13069839  1
  F  F25  1  0.38611028  -0.34916847  0.13069839  1
  F  F26  1  -0.38611028  0.34916847  0.13069839  1
  F  F27  1  -0.34916847  -0.38611028  0.13069839  1
  F  F28  1  0.34916847  0.38611028  0.13069839  1
  F  F29  1  0.97847813  0.78152645  0.00000000  1
  F  F30  1  0.02152187  0.21847355  0.00000000  1
  F  F31  1  0.21847355  0.97847813  0.00000000  1
  F  F32  1  0.78152645  0.02152187  0.00000000  1
  F  F33  1  0.02152187  0.78152645  0.00000000  1
  F  F34  1  0.97847813  0.21847355  0.00000000  1
  F  F35  1  0.78152645  0.97847813  0.00000000  1
  F  F36  1  0.21847355  0.02152187  0.00000000  1
  F  F37  1  0.13157655  0.13157655  0.38135523  1
  F  F38  1  0.86842345  0.86842345  0.38135523  1
  F  F39  1  0.86842345  0.13157655  0.38135523  1
  F  F40  1  0.13157655  0.86842345  0.38135523  1
  F  F41  1  0.86842345  0.13157655  0.61864477  1
  F  F42  1  0.13157655  0.86842345  0.61864477  1
  F  F43  1  0.13157655  0.13157655  0.61864477  1
  F  F44  1  0.86842345  0.86842345  0.61864477  1
  F  F45  1  0.00000000  0.50000000  0.50000000  1
  F  F46  1  0.50000000  0.00000000  0.50000000  1
  F  F47  1  0.00000000  0.00000000  0.50000000  1
  Li  Li48  1  0.31191050  0.31191050  0.50000000  1
  Li  Li49  1  0.68808950  0.68808950  0.50000000  1
  Li  Li50  1  0.68808950  0.31191050  0.50000000  1
  Li  Li51  1  0.31191050  0.68808950  0.50000000  1
  Li  Li52  1  0.35235560  0.24476557  0.16487479  1
  Li  Li53  1  0.64764440  0.75523443  0.16487479  1
  Li  Li54  1  0.75523443  0.35235560  0.16487479  1
  Li  Li55  1  0.24476557  0.64764440  0.16487479  1
  Li  Li56  1  0.64764440  0.24476557  0.83512521  1
  Li  Li57  1  0.35235560  0.75523443  0.83512521  1
  Li  Li58  1  0.24476557  0.35235560  0.83512521  1
  Li  Li59  1  0.75523443  0.64764440  0.83512521  1
  Li  Li60  1  0.64764440  0.75523443  0.83512521  1
  Li  Li61  1  0.35235560  0.24476557  0.83512521  1
  Li  Li62  1  0.24476557  0.64764440  0.83512521  1
  Li  Li63  1  0.75523443  0.35235560  0.83512521  1
  Li  Li64  1  0.35235560  0.75523443  0.16487479  1
  Li  Li65  1  0.64764440  0.24476557  0.16487479  1
  Li  Li66  1  0.75523443  0.64764440  0.16487479  1
  Li  Li67  1  0.24476557  0.35235560  0.16487479  1
  Li  Li68  1  0.73992670  0.42824468  0.12138600  1
  Li  Li69  1  0.26007330  0.57175532  0.12138600  1
  Li  Li70  1  0.57175532  0.73992670  0.12138600  1
  Li  Li71  1  0.42824468  0.26007330  0.12138600  1
  Li  Li72  1  0.26007330  0.42824468  0.87861400  1
  Li  Li73  1  0.73992670  0.57175532  0.87861400  1
  Li  Li74  1  0.42824468  0.73992670  0.87861400  1
  Li  Li75  1  0.57175532  0.26007330  0.87861400  1
  Li  Li76  1  0.26007330  0.57175532  0.87861400  1
  Li  Li77  1  0.73992670  0.42824468  0.87861400  1
  Li  Li78  1  0.42824468  0.26007330  0.87861400  1
  Li  Li79  1  0.57175532  0.73992670  0.87861400  1
  Li  Li80  1  0.73992670  0.57175532  0.12138600  1
  Li  Li81  1  0.26007330  0.42824468  0.12138600  1
  Li  Li82  1  0.57175532  0.26007330  0.12138600  1
  Li  Li83  1  0.42824468  0.73992670  0.12138600  1
  Li  Li84  1  0.29682565  0.29682565  0.00000000  1
  Li  Li85  1  0.70317435  0.70317435  -0.00000000  1
  Li  Li86  1  0.70317435  0.29682565  -0.00000000  1
  Li  Li87  1  0.29682565  0.70317435  0.00000000  1
  Li  Li88  1  0.18629869  0.86824938  0.11715147  1
  Li  Li89  1  0.81370131  0.13175062  0.11715147  1
  Li  Li90  1  0.13175062  0.18629869  0.11715147  1
  Li  Li91  1  0.86824938  0.81370131  0.11715147  1
  Li  Li92  1  0.81370131  0.86824938  0.88284853  1
  Li  Li93  1  0.18629869  0.13175062  0.88284853  1
  Li  Li94  1  0.86824938  0.18629869  0.88284853  1
  Li  Li95  1  0.13175062  0.81370131  0.88284853  1
  Li  Li96  1  0.81370131  0.13175062  0.88284853  1
  Li  Li97  1  0.18629869  0.86824938  0.88284853  1
  Li  Li98  1  0.86824938  0.81370131  0.88284853  1
  Li  Li99  1  0.13175062  0.18629869  0.88284853  1
  Li  Li100  1  0.18629869  0.13175062  0.11715147  1
  Li  Li101  1  0.81370131  0.86824938  0.11715147  1
  Li  Li102  1  0.13175062  0.81370131  0.11715147  1
  Li  Li103  1  0.86824938  0.18629869  0.11715147  1
  Li  Li104  1  0.07899889  -0.00000000  0.83278681  1
  Li  Li105  1  0.92100111  0.00000000  0.83278681  1
  Li  Li106  1  0.00000000  0.07899889  0.83278681  1
  Li  Li107  1  0.00000000  0.92100111  0.83278681  1
  Li  Li108  1  0.92100111  0.00000000  0.16721319  1
  Li  Li109  1  0.07899889  -0.00000000  0.16721319  1
  Li  Li110  1  0.00000000  0.07899889  0.16721319  1
  Li  Li111  1  0.00000000  0.92100111  0.16721319  1
  Li  Li112  1  0.65128307  0.58287686  0.30937825  1
  Li  Li113  1  0.34871693  0.41712314  0.30937825  1
  Li  Li114  1  0.41712314  0.65128307  0.30937825  1
  Li  Li115  1  0.58287686  0.34871693  0.30937825  1
  Li  Li116  1  0.34871693  0.58287686  0.69062175  1
  Li  Li117  1  0.65128307  0.41712314  0.69062175  1
  Li  Li118  1  0.58287686  0.65128307  0.69062175  1
  Li  Li119  1  0.41712314  0.34871693  0.69062175  1
  Li  Li120  1  0.34871693  0.41712314  0.69062175  1
  Li  Li121  1  0.65128307  0.58287686  0.69062175  1
  Li  Li122  1  0.58287686  0.34871693  0.69062175  1
  Li  Li123  1  0.41712314  0.65128307  0.69062175  1
  Li  Li124  1  0.65128307  0.41712314  0.30937825  1
  Li  Li125  1  0.34871693  0.58287686  0.30937825  1
  Li  Li126  1  0.41712314  0.34871693  0.30937825  1
  Li  Li127  1  0.58287686  0.65128307  0.30937825  1
  Li  Li128  1  0.62049451  0.62049451  0.50000000  1
  Li  Li129  1  0.37950549  0.37950549  0.50000000  1
  Li  Li130  1  0.37950549  0.62049451  0.50000000  1
  Li  Li131  1  0.62049451  0.37950549  0.50000000  1
  Li  Li132  1  0.13036198  0.71549388  0.50000000  1
  Li  Li133  1  0.86963802  0.28450612  0.50000000  1
  Li  Li134  1  0.28450612  0.13036198  0.50000000  1
  Li  Li135  1  0.71549388  0.86963802  0.50000000  1
  Li  Li136  1  0.86963802  0.71549388  0.50000000  1
  Li  Li137  1  0.13036198  0.28450612  0.50000000  1
  Li  Li138  1  0.71549388  0.13036198  0.50000000  1
  Li  Li139  1  0.28450612  0.86963802  0.50000000  1
  Li  Li140  1  0.00000000  0.50000000  0.70290148  1
  Li  Li141  1  0.50000000  0.00000000  0.70290148  1
  Li  Li142  1  0.00000000  0.50000000  0.29709852  1
  Li  Li143  1  0.50000000  0.00000000  0.29709852  1
  Te  Te144  1  0.19880404  0.19880404  0.69033512  1
  Te  Te145  1  0.80119596  0.80119596  0.69033512  1
  Te  Te146  1  0.80119596  0.19880404  0.69033512  1
  Te  Te147  1  0.19880404  0.80119596  0.69033512  1
  Te  Te148  1  0.80119596  0.19880404  0.30966488  1
  Te  Te149  1  0.19880404  0.80119596  0.30966488  1
  Te  Te150  1  0.19880404  0.19880404  0.30966488  1
  Te  Te151  1  0.80119596  0.80119596  0.30966488  1
  Te  Te152  1  0.17076309  0.00000000  0.36330702  1
  Te  Te153  1  0.82923691  0.00000000  0.36330702  1
  Te  Te154  1  0.00000000  0.17076309  0.36330702  1
  Te  Te155  1  0.00000000  0.82923691  0.36330702  1
  Te  Te156  1  0.82923691  0.00000000  0.63669298  1
  Te  Te157  1  0.17076309  0.00000000  0.63669298  1
  Te  Te158  1  0.00000000  0.17076309  0.63669298  1
  Te  Te159  1  0.00000000  0.82923691  0.63669298  1
  Te  Te160  1  0.64275723  0.50000000  0.50000000  1
  Te  Te161  1  0.35724277  0.50000000  0.50000000  1
  Te  Te162  1  0.50000000  0.64275723  0.50000000  1
  Te  Te163  1  0.50000000  0.35724277  0.50000000  1
  Te  Te164  1  0.26405407  0.50000000  0.50000000  1
  Te  Te165  1  0.73594593  0.50000000  0.50000000  1
  Te  Te166  1  0.50000000  0.26405407  0.50000000  1
  Te  Te167  1  0.50000000  0.73594593  0.50000000  1
