# generated using pymatgen
data_LiF
_symmetry_space_group_name_H-M   'P 1'
_cell_length_a   9.31554544
_cell_length_b   13.55551323
_cell_length_c   11.79764785
_cell_angle_alpha   90.00000000
_cell_angle_beta   90.00000000
_cell_angle_gamma   90.00000000
_symmetry_Int_Tables_number   1
_chemical_formula_structural   LiF
_chemical_formula_sum   'Li56 F56'
_cell_volume   1489.77157091
_cell_formula_units_Z   56
loop_
 _symmetry_equiv_pos_site_id
 _symmetry_equiv_pos_as_xyz
  1  'x, y, z'
loop_
 _atom_site_type_symbol
 _atom_site_label
 _atom_site_symmetry_multiplicity
 _atom_site_fract_x
 _atom_site_fract_y
 _atom_site_fract_z
 _atom_site_occupancy
  F  F0  1  0.61066487  0.80007073  0.53700737  1
  F  F1  1  0.88933513  0.19992927  0.03700737  1
  F  F2  1  0.38933513  0.30007073  0.46299263  1
  F  F3  1  0.11066487  0.69992927  0.96299263  1
  F  F4  1  0.38933513  0.19992927  0.46299263  1
  F  F5  1  0.11066487  0.80007073  0.96299263  1
  F  F6  1  0.61066487  0.69992927  0.53700737  1
  F  F7  1  0.88933513  0.30007073  0.03700737  1
  F  F8  1  0.15238311  0.13736900  0.51906848  1
  F  F9  1  0.34761689  0.86263100  0.01906848  1
  F  F10  1  0.84761689  0.63736900  0.48093152  1
  F  F11  1  0.65238311  0.36263100  0.98093152  1
  F  F12  1  0.84761689  0.86263100  0.48093152  1
  F  F13  1  0.65238311  0.13736900  0.98093152  1
  F  F14  1  0.15238311  0.36263100  0.51906848  1
  F  F15  1  0.34761689  0.63736900  0.01906848  1
  F  F16  1  0.32474519  0.11130800  0.14988509  1
  F  F17  1  0.17525481  0.88869200  0.64988509  1
  F  F18  1  0.67525481  0.61130800  0.85011491  1
  F  F19  1  0.82474519  0.38869200  0.35011491  1
  F  F20  1  0.67525481  0.88869200  0.85011491  1
  F  F21  1  0.82474519  0.11130800  0.35011491  1
  F  F22  1  0.32474519  0.38869200  0.14988509  1
  F  F23  1  0.17525481  0.61130800  0.64988509  1
  F  F24  1  0.38286039  0.07965086  0.88603328  1
  F  F25  1  0.11713961  0.92034914  0.38603328  1
  F  F26  1  0.61713961  0.57965086  0.11396672  1
  F  F27  1  0.88286039  0.42034914  0.61396672  1
  F  F28  1  0.61713961  0.92034914  0.11396672  1
  F  F29  1  0.88286039  0.07965086  0.61396672  1
  F  F30  1  0.38286039  0.42034914  0.88603328  1
  F  F31  1  0.11713961  0.57965086  0.38603328  1
  F  F32  1  0.71010770  0.25000000  0.64324363  1
  F  F33  1  0.78989230  0.75000000  0.14324363  1
  F  F34  1  0.28989230  0.75000000  0.35675637  1
  F  F35  1  0.21010770  0.25000000  0.85675637  1
  F  F36  1  0.40415058  0.64604553  0.40579552  1
  F  F37  1  0.09584942  0.35395447  0.90579552  1
  F  F38  1  0.59584942  0.14604553  0.59420448  1
  F  F39  1  0.90415058  0.85395447  0.09420448  1
  F  F40  1  0.59584942  0.35395447  0.59420448  1
  F  F41  1  0.90415058  0.64604553  0.09420448  1
  F  F42  1  0.40415058  0.85395447  0.40579552  1
  F  F43  1  0.09584942  0.14604553  0.90579552  1
  F  F44  1  0.85890653  0.83931881  0.74307377  1
  F  F45  1  0.64109347  0.16068119  0.24307377  1
  F  F46  1  0.14109347  0.33931881  0.25692623  1
  F  F47  1  0.35890653  0.66068119  0.75692623  1
  F  F48  1  0.14109347  0.16068119  0.25692623  1
  F  F49  1  0.35890653  0.83931881  0.75692623  1
  F  F50  1  0.85890653  0.66068119  0.74307377  1
  F  F51  1  0.64109347  0.33931881  0.24307377  1
  F  F52  1  0.55753578  0.25000000  0.63095064  1
  F  F53  1  0.94246422  0.75000000  0.13095064  1
  F  F54  1  0.44246422  0.75000000  0.36904936  1
  F  F55  1  0.05753578  0.25000000  0.86904936  1
  Li  Li56  1  0.00000000  0.00000000  0.00000000  1
  Li  Li57  1  0.50000000  0.00000000  0.50000000  1
  Li  Li58  1  0.00000000  0.50000000  -0.00000000  1
  Li  Li59  1  0.50000000  0.50000000  0.50000000  1
  Li  Li60  1  0.10951131  0.52306424  0.78133023  1
  Li  Li61  1  0.39048869  -0.52306424  1.28133023  1
  Li  Li62  1  -0.10951131  1.02306424  -0.78133023  1
  Li  Li63  1  0.60951131  -0.02306424  -0.28133023  1
  Li  Li64  1  -0.10951131  -0.52306424  -0.78133023  1
  Li  Li65  1  0.60951131  0.52306424  -0.28133023  1
  Li  Li66  1  0.10951131  -0.02306424  0.78133023  1
  Li  Li67  1  0.39048869  1.02306424  1.28133023  1
  Li  Li68  1  0.82793603  0.94934256  0.63107938  1
  Li  Li69  1  0.67206397  0.05065744  0.13107938  1
  Li  Li70  1  0.17206397  0.44934256  0.36892062  1
  Li  Li71  1  0.32793603  0.55065744  0.86892062  1
  Li  Li72  1  0.17206397  0.05065744  0.36892062  1
  Li  Li73  1  0.32793603  0.94934256  0.86892062  1
  Li  Li74  1  0.82793603  0.55065744  0.63107938  1
  Li  Li75  1  0.67206397  0.44934256  0.13107938  1
  Li  Li76  1  0.37101646  0.33493784  0.68629979  1
  Li  Li77  1  0.12898354  0.66506216  0.18629979  1
  Li  Li78  1  0.62898354  0.83493784  0.31370021  1
  Li  Li79  1  0.87101646  0.16506216  0.81370021  1
  Li  Li80  1  0.62898354  0.66506216  0.31370021  1
  Li  Li81  1  0.87101646  0.33493784  0.81370021  1
  Li  Li82  1  0.37101646  0.16506216  0.68629979  1
  Li  Li83  1  0.12898354  0.83493784  0.18629979  1
  Li  Li84  1  0.42309549  0.25000000  0.32585906  1
  Li  Li85  1  0.07690451  0.75000000  0.82585906  1
  Li  Li86  1  0.57690451  0.75000000  0.67414094  1
  Li  Li87  1  0.92309549  0.25000000  0.17414094  1
  Li  Li88  1  0.24726670  0.41009074  0.03707348  1
  Li  Li89  1  0.25273330  0.58990926  0.53707348  1
  Li  Li90  1  0.75273330  0.91009074  0.96292652  1
  Li  Li91  1  0.74726670  0.08990926  0.46292652  1
  Li  Li92  1  0.75273330  0.58990926  0.96292652  1
  Li  Li93  1  0.74726670  0.41009074  0.46292652  1
  Li  Li94  1  0.24726670  0.08990926  0.03707348  1
  Li  Li95  1  0.25273330  0.91009074  0.53707348  1
  Li  Li96  1  0.45215068  0.39148438  0.00311590  1
  Li  Li97  1  0.04784932  0.60851562  0.50311590  1
  Li  Li98  1  0.54784932  0.89148438  0.99688410  1
  Li  Li99  1  0.95215068  0.10851562  0.49688410  1
  Li  Li100  1  0.54784932  0.60851562  0.99688410  1
  Li  Li101  1  0.95215068  0.39148438  0.49688410  1
  Li  Li102  1  0.45215068  0.10851562  0.00311590  1
  Li  Li103  1  0.04784932  0.89148438  0.50311590  1
  Li  Li104  1  0.00000000  0.00000000  0.50000000  1
  Li  Li105  1  0.50000000  0.00000000  0.00000000  1
  Li  Li106  1  0.00000000  0.50000000  0.50000000  1
  Li  Li107  1  0.50000000  0.50000000  0.00000000  1
  Li  Li108  1  0.94151194  0.25000000  0.91341091  1
  Li  Li109  1  0.55848806  0.75000000  0.41341091  1
  Li  Li110  1  0.05848806  0.75000000  0.08658909  1
  Li  Li111  1  0.44151194  0.25000000  0.58658909  1
