# generated using pymatgen
data_LiYMoP
_symmetry_space_group_name_H-M   'P 1'
_cell_length_a   5.27132120
_cell_length_b   5.37372352
_cell_length_c   6.97365015
_cell_angle_alpha   93.94322534
_cell_angle_beta   98.73844533
_cell_angle_gamma   106.02059665
_symmetry_Int_Tables_number   1
_chemical_formula_structural   LiYMoP
_chemical_formula_sum   'Li2 Y2 Mo2 P2'
_cell_volume   186.38570892
_cell_formula_units_Z   2
loop_
 _symmetry_equiv_pos_site_id
 _symmetry_equiv_pos_as_xyz
  1  'x, y, z'
loop_
 _atom_site_type_symbol
 _atom_site_label
 _atom_site_symmetry_multiplicity
 _atom_site_fract_x
 _atom_site_fract_y
 _atom_site_fract_z
 _atom_site_occupancy
  Y  Y0  1  0.00000000  0.00000000  0.00000000  1
  Y  Y1  1  0.50000000  0.50000000  0.50000000  1
  P  P2  1  0.50000000  0.50000000  0.00000000  1
  P  P3  1  0.50000000  0.00000000  0.50000000  1
  Mo  Mo4  1  0.00000000  0.50000000  0.50000000  1
  Mo  Mo5  1  0.70530845  0.96262457  0.13065641  1
  Li  Li6  1  0.26861218  0.09409149  0.56109760  1
  Li  Li7  1  0.68123785  0.85850461  0.60330742  1
