# generated using pymatgen
data_LiF
_symmetry_space_group_name_H-M   'P 1'
_cell_length_a   9.59636079
_cell_length_b   7.34742511
_cell_length_c   13.20024661
_cell_angle_alpha   90.00000000
_cell_angle_beta   90.00000000
_cell_angle_gamma   90.00000000
_symmetry_Int_Tables_number   1
_chemical_formula_structural   LiF
_chemical_formula_sum   'Li44 F44'
_cell_volume   930.73014575
_cell_formula_units_Z   44
loop_
 _symmetry_equiv_pos_site_id
 _symmetry_equiv_pos_as_xyz
  1  'x, y, z'
loop_
 _atom_site_type_symbol
 _atom_site_label
 _atom_site_symmetry_multiplicity
 _atom_site_fract_x
 _atom_site_fract_y
 _atom_site_fract_z
 _atom_site_occupancy
  F  F0  1  0.08341991  0.62589802  0.20953235  1
  F  F1  1  0.91658009  0.37410198  0.20953235  1
  F  F2  1  0.41658009  0.12589802  0.79046765  1
  F  F3  1  0.58341991  0.87410198  0.79046765  1
  F  F4  1  0.91658009  0.37410198  0.79046765  1
  F  F5  1  0.08341991  0.62589802  0.79046765  1
  F  F6  1  0.58341991  0.87410198  0.20953235  1
  F  F7  1  0.41658009  0.12589802  0.20953235  1
  F  F8  1  0.74499158  0.70962513  0.00000000  1
  F  F9  1  0.25500842  0.29037487  0.00000000  1
  F  F10  1  0.75500842  0.20962513  0.00000000  1
  F  F11  1  0.24499158  0.79037487  0.00000000  1
  F  F12  1  0.00000000  0.00000000  0.13458736  1
  F  F13  1  0.50000000  0.50000000  0.86541264  1
  F  F14  1  0.00000000  0.00000000  0.86541264  1
  F  F15  1  0.50000000  0.50000000  0.13458736  1
  F  F16  1  0.44318689  0.47725685  0.50000000  1
  F  F17  1  0.55681311  0.52274315  0.50000000  1
  F  F18  1  0.05681311  0.97725685  0.50000000  1
  F  F19  1  0.94318689  0.02274315  0.50000000  1
  F  F20  1  0.41768157  0.39557245  0.71395181  1
  F  F21  1  0.58231843  0.60442755  0.71395181  1
  F  F22  1  0.08231843  0.89557245  0.28604819  1
  F  F23  1  0.91768157  0.10442755  0.28604819  1
  F  F24  1  0.58231843  0.60442755  0.28604819  1
  F  F25  1  0.41768157  0.39557245  0.28604819  1
  F  F26  1  0.91768157  0.10442755  0.71395181  1
  F  F27  1  0.08231843  0.89557245  0.71395181  1
  F  F28  1  0.06124970  0.82597209  0.08074631  1
  F  F29  1  0.93875030  0.17402791  0.08074631  1
  F  F30  1  0.43875030  0.32597209  0.91925369  1
  F  F31  1  0.56124970  0.67402791  0.91925369  1
  F  F32  1  0.93875030  0.17402791  0.91925369  1
  F  F33  1  0.06124970  0.82597209  0.91925369  1
  F  F34  1  0.56124970  0.67402791  0.08074631  1
  F  F35  1  0.43875030  0.32597209  0.08074631  1
  F  F36  1  0.94484481  0.03236549  0.07329178  1
  F  F37  1  0.05515519  0.96763451  0.07329178  1
  F  F38  1  0.55515519  0.53236549  0.92670822  1
  F  F39  1  0.44484481  0.46763451  0.92670822  1
  F  F40  1  0.05515519  0.96763451  0.92670822  1
  F  F41  1  0.94484481  0.03236549  0.92670822  1
  F  F42  1  0.44484481  0.46763451  0.07329178  1
  F  F43  1  0.55515519  0.53236549  0.07329178  1
  Li  Li44  1  0.30440020  0.91578855  0.77666025  1
  Li  Li45  1  -0.30440020  -0.91578855  0.77666025  1
  Li  Li46  1  0.19559980  1.41578855  -0.77666025  1
  Li  Li47  1  0.80440020  -0.41578855  -0.77666025  1
  Li  Li48  1  -0.30440020  -0.91578855  -0.77666025  1
  Li  Li49  1  0.30440020  0.91578855  -0.77666025  1
  Li  Li50  1  0.80440020  -0.41578855  0.77666025  1
  Li  Li51  1  0.19559980  1.41578855  0.77666025  1
  Li  Li52  1  0.01338368  0.37384400  0.56914015  1
  Li  Li53  1  0.98661632  0.62615600  0.56914015  1
  Li  Li54  1  0.48661632  0.87384400  0.43085985  1
  Li  Li55  1  0.51338368  0.12615600  0.43085985  1
  Li  Li56  1  0.98661632  0.62615600  0.43085985  1
  Li  Li57  1  0.01338368  0.37384400  0.43085985  1
  Li  Li58  1  0.51338368  0.12615600  0.56914015  1
  Li  Li59  1  0.48661632  0.87384400  0.56914015  1
  Li  Li60  1  0.26523548  0.63060610  0.00000000  1
  Li  Li61  1  0.73476452  0.36939390  -0.00000000  1
  Li  Li62  1  0.23476452  0.13060610  0.00000000  1
  Li  Li63  1  0.76523548  0.86939390  0.00000000  1
  Li  Li64  1  0.86603615  0.37709140  0.71631220  1
  Li  Li65  1  0.13396385  0.62290860  0.71631220  1
  Li  Li66  1  0.63396385  0.87709140  0.28368780  1
  Li  Li67  1  0.36603615  0.12290860  0.28368780  1
  Li  Li68  1  0.13396385  0.62290860  0.28368780  1
  Li  Li69  1  0.86603615  0.37709140  0.28368780  1
  Li  Li70  1  0.36603615  0.12290860  0.71631220  1
  Li  Li71  1  0.63396385  0.87709140  0.71631220  1
  Li  Li72  1  0.22693363  0.28983504  0.41041268  1
  Li  Li73  1  0.77306637  0.71016496  0.41041268  1
  Li  Li74  1  0.27306637  0.78983504  0.58958732  1
  Li  Li75  1  0.72693363  0.21016496  0.58958732  1
  Li  Li76  1  0.77306637  0.71016496  0.58958732  1
  Li  Li77  1  0.22693363  0.28983504  0.58958732  1
  Li  Li78  1  0.72693363  0.21016496  0.41041268  1
  Li  Li79  1  0.27306637  0.78983504  0.41041268  1
  Li  Li80  1  0.32960981  0.55336206  0.50000000  1
  Li  Li81  1  0.67039019  0.44663794  0.50000000  1
  Li  Li82  1  0.17039019  0.05336206  0.50000000  1
  Li  Li83  1  0.82960981  0.94663794  0.50000000  1
  Li  Li84  1  0.94525821  0.82089345  0.50000000  1
  Li  Li85  1  0.05474179  0.17910655  0.50000000  1
  Li  Li86  1  0.55474179  0.32089345  0.50000000  1
  Li  Li87  1  0.44525821  0.67910655  0.50000000  1
