# generated using pymatgen
data_Li2Y2MoAsP3
_symmetry_space_group_name_H-M   'P 1'
_cell_length_a   4.43449709
_cell_length_b   4.74841115
_cell_length_c   6.78222423
_cell_angle_alpha   95.95541461
_cell_angle_beta   102.56023904
_cell_angle_gamma   111.93090510
_symmetry_Int_Tables_number   1
_chemical_formula_structural   Li2Y2MoAsP3
_chemical_formula_sum   'Li2 Y2 Mo1 As1 P3'
_cell_volume   126.57982084
_cell_formula_units_Z   1
loop_
 _symmetry_equiv_pos_site_id
 _symmetry_equiv_pos_as_xyz
  1  'x, y, z'
loop_
 _atom_site_type_symbol
 _atom_site_label
 _atom_site_symmetry_multiplicity
 _atom_site_fract_x
 _atom_site_fract_y
 _atom_site_fract_z
 _atom_site_occupancy
  P  P0  1  0.00000000  0.00000000  0.00000000  1
  P  P1  1  0.50000000  0.50000000  0.50000000  1
  P  P2  1  0.25000000  0.25000000  0.25000000  1
  Mo  Mo3  1  0.75000000  0.25000000  0.00000000  1
  As  As4  1  0.25000000  0.75000000  0.50000000  1
  Li  Li5  1  0.02668117  0.59015644  0.79453279  1
  Li  Li6  1  0.60910048  0.54411414  0.39918848  1
  Y  Y7  1  0.17194926  0.20812144  0.96075673  1
  Y  Y8  1  0.87700093  0.73262581  0.84066219  1
