# generated using pymatgen
data_Li2Y2MoP3Se2
_symmetry_space_group_name_H-M   'P 1'
_cell_length_a   5.11073862
_cell_length_b   5.31155737
_cell_length_c   7.07265019
_cell_angle_alpha   94.58570527
_cell_angle_beta   99.98671273
_cell_angle_gamma   108.41895551
_symmetry_Int_Tables_number   1
_chemical_formula_structural   Li2Y2MoP3Se2
_chemical_formula_sum   'Li2 Y2 Mo1 P3 Se2'
_cell_volume   177.52330506
_cell_formula_units_Z   1
loop_
 _symmetry_equiv_pos_site_id
 _symmetry_equiv_pos_as_xyz
  1  'x, y, z'
loop_
 _atom_site_type_symbol
 _atom_site_label
 _atom_site_symmetry_multiplicity
 _atom_site_fract_x
 _atom_site_fract_y
 _atom_site_fract_z
 _atom_site_occupancy
  Y  Y0  1  0.12500000  0.00000000  0.25000000  1
  Y  Y1  1  0.00000000  0.00000000  0.00000000  1
  P  P2  1  0.37500000  0.00000000  0.25000000  1
  P  P3  1  0.25000000  0.25000000  0.25000000  1
  P  P4  1  0.00000000  0.25000000  0.12500000  1
  Mo  Mo5  1  0.75720608  0.31511272  0.04872292  1
  Se  Se6  1  0.96796100  0.40657329  0.66446903  1
  Se  Se7  1  0.96853745  0.59719574  0.28560352  1
  Li  Li8  1  0.12801254  0.50660738  0.82779534  1
  Li  Li9  1  0.35743656  0.98873827  0.12502582  1
