# generated using pymatgen
data_LiY2(SbP)2
_symmetry_space_group_name_H-M   'P 1'
_cell_length_a   4.61469359
_cell_length_b   4.67823978
_cell_length_c   7.01188965
_cell_angle_alpha   95.48985038
_cell_angle_beta   101.95575280
_cell_angle_gamma   112.05054707
_symmetry_Int_Tables_number   1
_chemical_formula_structural   LiY2(SbP)2
_chemical_formula_sum   'Li1 Y2 Sb2 P2'
_cell_volume   134.72649610
_cell_formula_units_Z   1
loop_
 _symmetry_equiv_pos_site_id
 _symmetry_equiv_pos_as_xyz
  1  'x, y, z'
loop_
 _atom_site_type_symbol
 _atom_site_label
 _atom_site_symmetry_multiplicity
 _atom_site_fract_x
 _atom_site_fract_y
 _atom_site_fract_z
 _atom_site_occupancy
  P  P0  1  0.00000000  0.00000000  0.00000000  1
  P  P1  1  0.33300000  0.66700000  0.25000000  1
  Li  Li2  1  0.66700000  0.33300000  0.50000000  1
  Y  Y3  1  0.00000000  0.00000000  0.75000000  1
  Y  Y4  1  0.74806904  0.51173436  0.90710935  1
  Sb  Sb5  1  0.90764119  0.70587795  0.13134106  1
  Sb  Sb6  1  0.83432353  0.56932285  0.58943761  1
