# generated using pymatgen
data_LiY2MoP3Se2
_symmetry_space_group_name_H-M   'P 1'
_cell_length_a   5.25964183
_cell_length_b   5.52115543
_cell_length_c   7.26813377
_cell_angle_alpha   94.39022084
_cell_angle_beta   99.56098828
_cell_angle_gamma   107.63377225
_symmetry_Int_Tables_number   1
_chemical_formula_structural   LiY2MoP3Se2
_chemical_formula_sum   'Li1 Y2 Mo1 P3 Se2'
_cell_volume   196.53454747
_cell_formula_units_Z   1
loop_
 _symmetry_equiv_pos_site_id
 _symmetry_equiv_pos_as_xyz
  1  'x, y, z'
loop_
 _atom_site_type_symbol
 _atom_site_label
 _atom_site_symmetry_multiplicity
 _atom_site_fract_x
 _atom_site_fract_y
 _atom_site_fract_z
 _atom_site_occupancy
  Se  Se0  1  0.12500000  0.00000000  0.25000000  1
  Se  Se1  1  0.00000000  0.00000000  0.00000000  1
  Y  Y2  1  0.37500000  0.00000000  0.25000000  1
  Y  Y3  1  0.25000000  0.25000000  0.25000000  1
  P  P4  1  0.00000000  0.25000000  0.12500000  1
  P  P5  1  0.40503673  0.07745567  0.38611497  1
  P  P6  1  0.62736794  0.92703291  0.89898558  1
  Mo  Mo7  1  0.71529523  0.56946068  0.19278169  1
  Li  Li8  1  0.39792524  0.64409949  0.99898953  1
