# generated using pymatgen
data_LiY2Te4P3Se2
_symmetry_space_group_name_H-M   'P 1'
_cell_length_a   5.22219251
_cell_length_b   5.31339729
_cell_length_c   7.32283375
_cell_angle_alpha   94.53390400
_cell_angle_beta   99.87390034
_cell_angle_gamma   108.21089041
_symmetry_Int_Tables_number   1
_chemical_formula_structural   LiY2Te4P3Se2
_chemical_formula_sum   'Li1 Y2 Te4 P3 Se2'
_cell_volume   188.23502987
_cell_formula_units_Z   1
loop_
 _symmetry_equiv_pos_site_id
 _symmetry_equiv_pos_as_xyz
  1  'x, y, z'
loop_
 _atom_site_type_symbol
 _atom_site_label
 _atom_site_symmetry_multiplicity
 _atom_site_fract_x
 _atom_site_fract_y
 _atom_site_fract_z
 _atom_site_occupancy
  Se  Se0  1  0.00000000  0.00000000  0.00000000  1
  Se  Se1  1  0.50000000  0.50000000  0.50000000  1
  Te  Te2  1  0.50000000  0.50000000  0.00000000  1
  Te  Te3  1  0.50000000  0.00000000  0.50000000  1
  Te  Te4  1  0.00000000  0.50000000  0.50000000  1
  Te  Te5  1  0.84539652  0.14092334  0.32233268  1
  Y  Y6  1  0.04497616  0.14007721  0.67167493  1
  Y  Y7  1  0.63931081  0.28265099  0.08807687  1
  P  P8  1  0.96084830  0.07634992  0.68873507  1
  P  P9  1  0.50748639  0.94049592  0.26063808  1
  P  P10  1  0.14239429  0.98387620  0.17376059  1
  Li  Li11  1  0.46798207  0.93630943  0.98788739  1
