# generated using pymatgen
data_LiF
_symmetry_space_group_name_H-M   'P 1'
_cell_length_a   9.35328246
_cell_length_b   9.35328246
_cell_length_c   15.34722361
_cell_angle_alpha   90.00000000
_cell_angle_beta   90.00000000
_cell_angle_gamma   90.00000000
_symmetry_Int_Tables_number   1
_chemical_formula_structural   LiF
_chemical_formula_sum   'Li56 F56'
_cell_volume   1342.63486499
_cell_formula_units_Z   56
loop_
 _symmetry_equiv_pos_site_id
 _symmetry_equiv_pos_as_xyz
  1  'x, y, z'
loop_
 _atom_site_type_symbol
 _atom_site_label
 _atom_site_symmetry_multiplicity
 _atom_site_fract_x
 _atom_site_fract_y
 _atom_site_fract_z
 _atom_site_occupancy
  F  F0  1  0.57224868  0.82224868  0.12500000  1
  F  F1  1  0.92775132  0.17775132  0.62500000  1
  F  F2  1  0.42775132  0.32224868  0.37500000  1
  F  F3  1  0.07224868  0.67775132  0.87500000  1
  F  F4  1  0.42775132  0.17775132  0.87500000  1
  F  F5  1  0.07224868  0.82224868  0.37500000  1
  F  F6  1  0.57224868  0.67775132  0.62500000  1
  F  F7  1  0.92775132  0.32224868  0.12500000  1
  F  F8  1  0.07224868  0.32224868  0.62500000  1
  F  F9  1  0.42775132  0.67775132  0.12500000  1
  F  F10  1  0.92775132  0.82224868  0.87500000  1
  F  F11  1  0.57224868  0.17775132  0.37500000  1
  F  F12  1  0.92775132  0.67775132  0.37500000  1
  F  F13  1  0.57224868  0.32224868  0.87500000  1
  F  F14  1  0.07224868  0.17775132  0.12500000  1
  F  F15  1  0.42775132  0.82224868  0.62500000  1
  F  F16  1  0.79374019  0.40442981  0.09650699  1
  F  F17  1  0.70625981  0.59557019  0.59650699  1
  F  F18  1  0.84557019  0.54374019  0.34650699  1
  F  F19  1  0.65442981  0.45625981  0.84650699  1
  F  F20  1  0.70625981  0.40442981  0.90349301  1
  F  F21  1  0.79374019  0.59557019  0.40349301  1
  F  F22  1  0.65442981  0.54374019  0.65349301  1
  F  F23  1  0.84557019  0.45625981  0.15349301  1
  F  F24  1  0.20625981  0.59557019  0.90349301  1
  F  F25  1  0.29374019  0.40442981  0.40349301  1
  F  F26  1  0.15442981  0.45625981  0.65349301  1
  F  F27  1  0.34557019  0.54374019  0.15349301  1
  F  F28  1  0.29374019  0.59557019  0.09650699  1
  F  F29  1  0.20625981  0.40442981  0.59650699  1
  F  F30  1  0.34557019  0.45625981  0.34650699  1
  F  F31  1  0.15442981  0.54374019  0.84650699  1
  F  F32  1  0.29374019  0.90442981  0.59650699  1
  F  F33  1  0.20625981  0.09557019  0.09650699  1
  F  F34  1  0.34557019  0.04374019  0.84650699  1
  F  F35  1  0.15442981  0.95625981  0.34650699  1
  F  F36  1  0.20625981  0.90442981  0.40349301  1
  F  F37  1  0.29374019  0.09557019  0.90349301  1
  F  F38  1  0.15442981  0.04374019  0.15349301  1
  F  F39  1  0.34557019  0.95625981  0.65349301  1
  F  F40  1  0.70625981  0.09557019  0.40349301  1
  F  F41  1  0.79374019  0.90442981  0.90349301  1
  F  F42  1  0.65442981  0.95625981  0.15349301  1
  F  F43  1  0.84557019  0.04374019  0.65349301  1
  F  F44  1  0.79374019  0.09557019  0.59650699  1
  F  F45  1  0.70625981  0.90442981  0.09650699  1
  F  F46  1  0.84557019  0.95625981  0.84650699  1
  F  F47  1  0.65442981  0.04374019  0.34650699  1
  F  F48  1  0.00000000  0.25000000  0.12500000  1
  F  F49  1  0.00000000  0.75000000  0.37500000  1
  F  F50  1  0.00000000  0.75000000  0.87500000  1
  F  F51  1  0.00000000  0.25000000  0.62500000  1
  F  F52  1  0.50000000  0.75000000  0.62500000  1
  F  F53  1  0.50000000  0.25000000  0.87500000  1
  F  F54  1  0.50000000  0.25000000  0.37500000  1
  F  F55  1  0.50000000  0.75000000  0.12500000  1
  Li  Li56  1  0.00000000  0.25000000  0.37500000  1
  Li  Li57  1  0.00000000  0.75000000  0.62500000  1
  Li  Li58  1  0.50000000  0.25000000  0.62500000  1
  Li  Li59  1  0.50000000  0.75000000  0.37500000  1
  Li  Li60  1  0.50000000  0.75000000  0.87500000  1
  Li  Li61  1  0.50000000  0.25000000  0.12500000  1
  Li  Li62  1  0.00000000  0.75000000  0.12500000  1
  Li  Li63  1  0.00000000  0.25000000  0.87500000  1
  Li  Li64  1  0.24995063  0.47696402  0.08413890  1
  Li  Li65  1  0.25004937  -0.47696402  0.58413890  1
  Li  Li66  1  -0.22696402  0.99995063  0.33413890  1
  Li  Li67  1  0.72696402  0.00004937  0.83413890  1
  Li  Li68  1  0.25004937  0.47696402  -0.08413890  1
  Li  Li69  1  0.24995063  -0.47696402  0.41586110  1
  Li  Li70  1  0.72696402  0.99995063  0.66586110  1
  Li  Li71  1  -0.22696402  0.00004937  0.16586110  1
  Li  Li72  1  -0.24995063  -0.47696402  -0.08413890  1
  Li  Li73  1  0.74995063  0.47696402  0.41586110  1
  Li  Li74  1  1.22696402  0.00004937  0.66586110  1
  Li  Li75  1  0.27303598  0.99995063  0.16586110  1
  Li  Li76  1  0.74995063  -0.47696402  0.08413890  1
  Li  Li77  1  -0.24995063  0.47696402  0.58413890  1
  Li  Li78  1  0.27303598  0.00004937  0.33413890  1
  Li  Li79  1  1.22696402  0.99995063  0.83413890  1
  Li  Li80  1  0.74995063  0.97696402  0.58413890  1
  Li  Li81  1  0.75004937  0.02303598  1.08413890  1
  Li  Li82  1  0.27303598  1.49995063  0.83413890  1
  Li  Li83  1  1.22696402  0.50004937  1.33413890  1
  Li  Li84  1  0.75004937  0.97696402  0.41586110  1
  Li  Li85  1  0.74995063  0.02303598  0.91586110  1
  Li  Li86  1  1.22696402  1.49995063  1.16586110  1
  Li  Li87  1  0.27303598  0.50004937  0.66586110  1
  Li  Li88  1  0.25004937  0.02303598  0.41586110  1
  Li  Li89  1  1.24995063  0.97696402  0.91586110  1
  Li  Li90  1  1.72696402  0.50004937  1.16586110  1
  Li  Li91  1  0.77303598  1.49995063  0.66586110  1
  Li  Li92  1  1.24995063  0.02303598  0.58413890  1
  Li  Li93  1  0.25004937  0.97696402  1.08413890  1
  Li  Li94  1  0.77303598  0.50004937  0.83413890  1
  Li  Li95  1  1.72696402  1.49995063  1.33413890  1
  Li  Li96  1  0.00000000  0.00000000  0.00000000  1
  Li  Li97  1  0.50000000  0.00000000  0.50000000  1
  Li  Li98  1  0.25000000  0.75000000  0.25000000  1
  Li  Li99  1  0.25000000  0.25000000  0.75000000  1
  Li  Li100  1  0.50000000  0.00000000  0.00000000  1
  Li  Li101  1  0.00000000  0.00000000  0.50000000  1
  Li  Li102  1  0.25000000  0.75000000  0.75000000  1
  Li  Li103  1  0.25000000  0.25000000  0.25000000  1
  Li  Li104  1  0.50000000  0.50000000  0.50000000  1
  Li  Li105  1  0.00000000  0.50000000  0.00000000  1
  Li  Li106  1  0.75000000  0.25000000  0.75000000  1
  Li  Li107  1  0.75000000  0.75000000  0.25000000  1
  Li  Li108  1  0.00000000  0.50000000  0.50000000  1
  Li  Li109  1  0.50000000  0.50000000  0.00000000  1
  Li  Li110  1  0.75000000  0.25000000  0.25000000  1
  Li  Li111  1  0.75000000  0.75000000  0.75000000  1
