# generated using pymatgen
data_LiYSbAs2P
_symmetry_space_group_name_H-M   'P 1'
_cell_length_a   5.35028286
_cell_length_b   5.46648929
_cell_length_c   7.00626527
_cell_angle_alpha   93.96521402
_cell_angle_beta   98.07924312
_cell_angle_gamma   105.05446911
_symmetry_Int_Tables_number   1
_chemical_formula_structural   LiYSbAs2P
_chemical_formula_sum   'Li2 Y2 Sb2 As4 P2'
_cell_volume   194.71733863
_cell_formula_units_Z   2
loop_
 _symmetry_equiv_pos_site_id
 _symmetry_equiv_pos_as_xyz
  1  'x, y, z'
loop_
 _atom_site_type_symbol
 _atom_site_label
 _atom_site_symmetry_multiplicity
 _atom_site_fract_x
 _atom_site_fract_y
 _atom_site_fract_z
 _atom_site_occupancy
  Y  Y0  1  0.00000000  0.00000000  0.00000000  1
  Y  Y1  1  0.50000000  0.50000000  0.50000000  1
  P  P2  1  0.50000000  0.50000000  0.00000000  1
  P  P3  1  0.50000000  0.00000000  0.50000000  1
  As  As4  1  0.00000000  0.50000000  0.50000000  1
  As  As5  1  0.55402103  0.38922726  0.24774151  1
  As  As6  1  0.69503487  0.90397950  0.70679675  1
  As  As7  1  0.17444276  0.47299513  0.83079680  1
  Li  Li8  1  0.99594211  0.71957391  0.67017655  1
  Li  Li9  1  0.16039153  0.61201810  0.66290191  1
  Sb  Sb10  1  0.73724833  0.66363243  0.36828735  1
  Sb  Sb11  1  0.98014629  0.48242834  0.25716862  1
