# generated using pymatgen
data_LiF
_symmetry_space_group_name_H-M   'P 1'
_cell_length_a   16.94977598
_cell_length_b   16.94977598
_cell_length_c   5.38504153
_cell_angle_alpha   90.00000000
_cell_angle_beta   90.00000000
_cell_angle_gamma   90.00000000
_symmetry_Int_Tables_number   1
_chemical_formula_structural   LiF
_chemical_formula_sum   'Li64 F64'
_cell_volume   1547.09499822
_cell_formula_units_Z   64
loop_
 _symmetry_equiv_pos_site_id
 _symmetry_equiv_pos_as_xyz
  1  'x, y, z'
loop_
 _atom_site_type_symbol
 _atom_site_label
 _atom_site_symmetry_multiplicity
 _atom_site_fract_x
 _atom_site_fract_y
 _atom_site_fract_z
 _atom_site_occupancy
  F  F0  1  0.20408688  0.93880810  0.44486926  1
  F  F1  1  0.29591312  -0.93880810  0.94486926  1
  F  F2  1  -0.68880810  0.95408688  0.69486926  1
  F  F3  1  1.18880810  0.04591312  1.19486926  1
  F  F4  1  0.29591312  0.93880810  -0.44486926  1
  F  F5  1  0.20408688  -0.93880810  0.05513074  1
  F  F6  1  1.18880810  0.95408688  0.30513074  1
  F  F7  1  -0.68880810  0.04591312  -0.19486926  1
  F  F8  1  -0.20408688  -0.93880810  -0.44486926  1
  F  F9  1  0.70408688  0.93880810  0.05513074  1
  F  F10  1  1.68880810  0.04591312  0.30513074  1
  F  F11  1  -0.18880810  0.95408688  -0.19486926  1
  F  F12  1  0.70408688  -0.93880810  0.44486926  1
  F  F13  1  -0.20408688  0.93880810  0.94486926  1
  F  F14  1  -0.18880810  0.04591312  0.69486926  1
  F  F15  1  1.68880810  0.95408688  1.19486926  1
  F  F16  1  0.70408688  1.43880810  0.94486926  1
  F  F17  1  0.79591312  -0.43880810  1.44486926  1
  F  F18  1  -0.18880810  1.45408688  1.19486926  1
  F  F19  1  1.68880810  0.54591312  1.69486926  1
  F  F20  1  0.79591312  1.43880810  0.05513074  1
  F  F21  1  0.70408688  -0.43880810  0.55513074  1
  F  F22  1  1.68880810  1.45408688  0.80513074  1
  F  F23  1  -0.18880810  0.54591312  0.30513074  1
  F  F24  1  0.29591312  -0.43880810  0.05513074  1
  F  F25  1  1.20408688  1.43880810  0.55513074  1
  F  F26  1  2.18880810  0.54591312  0.80513074  1
  F  F27  1  0.31119190  1.45408688  0.30513074  1
  F  F28  1  1.20408688  -0.43880810  0.94486926  1
  F  F29  1  0.29591312  1.43880810  1.44486926  1
  F  F30  1  0.31119190  0.54591312  1.19486926  1
  F  F31  1  2.18880810  1.45408688  1.69486926  1
  F  F32  1  0.63588777  0.30734634  0.43032793  1
  F  F33  1  0.86411223  0.69265366  0.93032793  1
  F  F34  1  0.94265366  0.38588777  0.68032793  1
  F  F35  1  0.55734634  0.61411223  0.18032793  1
  F  F36  1  0.86411223  0.30734634  0.56967207  1
  F  F37  1  0.63588777  0.69265366  0.06967207  1
  F  F38  1  0.55734634  0.38588777  0.31967207  1
  F  F39  1  0.94265366  0.61411223  0.81967207  1
  F  F40  1  0.36411223  0.69265366  0.56967207  1
  F  F41  1  0.13588777  0.30734634  0.06967207  1
  F  F42  1  0.05734634  0.61411223  0.31967207  1
  F  F43  1  0.44265366  0.38588777  0.81967207  1
  F  F44  1  0.13588777  0.69265366  0.43032793  1
  F  F45  1  0.36411223  0.30734634  0.93032793  1
  F  F46  1  0.44265366  0.61411223  0.68032793  1
  F  F47  1  0.05734634  0.38588777  0.18032793  1
  F  F48  1  0.13588777  0.80734634  0.93032793  1
  F  F49  1  0.36411223  0.19265366  0.43032793  1
  F  F50  1  0.44265366  0.88588777  0.18032793  1
  F  F51  1  0.05734634  0.11411223  0.68032793  1
  F  F52  1  0.36411223  0.80734634  0.06967207  1
  F  F53  1  0.13588777  0.19265366  0.56967207  1
  F  F54  1  0.05734634  0.88588777  0.81967207  1
  F  F55  1  0.44265366  0.11411223  0.31967207  1
  F  F56  1  0.86411223  0.19265366  0.06967207  1
  F  F57  1  0.63588777  0.80734634  0.56967207  1
  F  F58  1  0.55734634  0.11411223  0.81967207  1
  F  F59  1  0.94265366  0.88588777  0.31967207  1
  F  F60  1  0.63588777  0.19265366  0.93032793  1
  F  F61  1  0.86411223  0.80734634  0.43032793  1
  F  F62  1  0.94265366  0.11411223  0.18032793  1
  F  F63  1  0.55734634  0.88588777  0.68032793  1
  Li  Li64  1  0.03746936  0.41986616  0.66115717  1
  Li  Li65  1  0.46253064  0.58013384  0.16115717  1
  Li  Li66  1  0.83013384  0.78746936  0.91115717  1
  Li  Li67  1  0.66986616  0.21253064  0.41115717  1
  Li  Li68  1  0.46253064  0.41986616  0.33884283  1
  Li  Li69  1  0.03746936  0.58013384  0.83884283  1
  Li  Li70  1  0.66986616  0.78746936  0.08884283  1
  Li  Li71  1  0.83013384  0.21253064  0.58884283  1
  Li  Li72  1  0.96253064  0.58013384  0.33884283  1
  Li  Li73  1  0.53746936  0.41986616  0.83884283  1
  Li  Li74  1  0.16986616  0.21253064  0.08884283  1
  Li  Li75  1  0.33013384  0.78746936  0.58884283  1
  Li  Li76  1  0.53746936  0.58013384  0.66115717  1
  Li  Li77  1  0.96253064  0.41986616  0.16115717  1
  Li  Li78  1  0.33013384  0.21253064  0.91115717  1
  Li  Li79  1  0.16986616  0.78746936  0.41115717  1
  Li  Li80  1  0.53746936  0.91986616  0.16115717  1
  Li  Li81  1  0.96253064  0.08013384  0.66115717  1
  Li  Li82  1  0.33013384  0.28746936  0.41115717  1
  Li  Li83  1  0.16986616  0.71253064  0.91115717  1
  Li  Li84  1  0.96253064  0.91986616  0.83884283  1
  Li  Li85  1  0.53746936  0.08013384  0.33884283  1
  Li  Li86  1  0.16986616  0.28746936  0.58884283  1
  Li  Li87  1  0.33013384  0.71253064  0.08884283  1
  Li  Li88  1  0.46253064  0.08013384  0.83884283  1
  Li  Li89  1  0.03746936  0.91986616  0.33884283  1
  Li  Li90  1  0.66986616  0.71253064  0.58884283  1
  Li  Li91  1  0.83013384  0.28746936  0.08884283  1
  Li  Li92  1  0.03746936  0.08013384  0.16115717  1
  Li  Li93  1  0.46253064  0.91986616  0.66115717  1
  Li  Li94  1  0.83013384  0.71253064  0.41115717  1
  Li  Li95  1  0.66986616  0.28746936  0.91115717  1
  Li  Li96  1  0.86376566  0.57433392  0.75597912  1
  Li  Li97  1  0.63623434  0.42566608  0.25597912  1
  Li  Li98  1  0.67566608  0.61376566  0.00597912  1
  Li  Li99  1  0.82433392  0.38623434  0.50597912  1
  Li  Li100  1  0.63623434  0.57433392  0.24402088  1
  Li  Li101  1  0.86376566  0.42566608  0.74402088  1
  Li  Li102  1  0.82433392  0.61376566  0.99402088  1
  Li  Li103  1  0.67566608  0.38623434  0.49402088  1
  Li  Li104  1  0.13623434  0.42566608  0.24402088  1
  Li  Li105  1  0.36376566  0.57433392  0.74402088  1
  Li  Li106  1  0.32433392  0.38623434  0.99402088  1
  Li  Li107  1  0.17566608  0.61376566  0.49402088  1
  Li  Li108  1  0.36376566  0.42566608  0.75597912  1
  Li  Li109  1  0.13623434  0.57433392  0.25597912  1
  Li  Li110  1  0.17566608  0.38623434  0.00597912  1
  Li  Li111  1  0.32433392  0.61376566  0.50597912  1
  Li  Li112  1  0.36376566  0.07433392  0.25597912  1
  Li  Li113  1  0.13623434  0.92566608  0.75597912  1
  Li  Li114  1  0.17566608  0.11376566  0.50597912  1
  Li  Li115  1  0.32433392  0.88623434  0.00597912  1
  Li  Li116  1  0.13623434  0.07433392  0.74402088  1
  Li  Li117  1  0.36376566  0.92566608  0.24402088  1
  Li  Li118  1  0.32433392  0.11376566  0.49402088  1
  Li  Li119  1  0.17566608  0.88623434  0.99402088  1
  Li  Li120  1  0.63623434  0.92566608  0.74402088  1
  Li  Li121  1  0.86376566  0.07433392  0.24402088  1
  Li  Li122  1  0.82433392  0.88623434  0.49402088  1
  Li  Li123  1  0.67566608  0.11376566  0.99402088  1
  Li  Li124  1  0.86376566  0.92566608  0.25597912  1
  Li  Li125  1  0.63623434  0.07433392  0.75597912  1
  Li  Li126  1  0.67566608  0.88623434  0.50597912  1
  Li  Li127  1  0.82433392  0.11376566  0.00597912  1
