# generated using pymatgen
data_LiF
_symmetry_space_group_name_H-M   'P 1'
_cell_length_a   5.98705080
_cell_length_b   5.98705080
_cell_length_c   9.99680901
_cell_angle_alpha   90.00000000
_cell_angle_beta   90.00000000
_cell_angle_gamma   120.00000000
_symmetry_Int_Tables_number   1
_chemical_formula_structural   LiF
_chemical_formula_sum   'Li12 F12'
_cell_volume   310.32582064
_cell_formula_units_Z   12
loop_
 _symmetry_equiv_pos_site_id
 _symmetry_equiv_pos_as_xyz
  1  'x, y, z'
loop_
 _atom_site_type_symbol
 _atom_site_label
 _atom_site_symmetry_multiplicity
 _atom_site_fract_x
 _atom_site_fract_y
 _atom_site_fract_z
 _atom_site_occupancy
  F  F0  1  0.73274260  0.94058537  0.22771551  1
  F  F1  1  0.05941463  0.79215723  0.22771551  1
  F  F2  1  0.20784277  0.26725740  0.22771551  1
  F  F3  1  0.05941463  0.26725740  0.77228449  1
  F  F4  1  0.20784277  0.94058537  0.77228449  1
  F  F5  1  0.73274260  0.79215723  0.77228449  1
  F  F6  1  0.09504827  0.82892832  0.05056524  1
  F  F7  1  0.17107168  0.26611995  0.05056524  1
  F  F8  1  0.73388005  0.90495173  0.05056524  1
  F  F9  1  0.17107168  0.90495173  0.94943476  1
  F  F10  1  0.73388005  0.82892832  0.94943476  1
  F  F11  1  0.09504827  0.26611995  0.94943476  1
  Li  Li12  1  0.97685478  0.35630577  0.63675347  1
  Li  Li13  1  -0.35630577  0.62054901  0.63675347  1
  Li  Li14  1  -0.62054901  -0.97685478  0.63675347  1
  Li  Li15  1  -0.35630577  -0.97685478  -0.63675347  1
  Li  Li16  1  -0.62054901  0.35630577  -0.63675347  1
  Li  Li17  1  0.97685478  0.62054901  -0.63675347  1
  Li  Li18  1  0.33333333  0.66666667  0.00000000  1
  Li  Li19  1  0.00000000  0.00000000  0.50000000  1
  Li  Li20  1  0.66666667  0.33333333  0.32241466  1
  Li  Li21  1  0.66666667  0.33333333  0.67758534  1
  Li  Li22  1  0.00000000  0.00000000  0.00000000  1
  Li  Li23  1  0.33333333  0.66666667  0.50000000  1
