# generated using pymatgen
data_Li2Si4Te3F12
_symmetry_space_group_name_H-M   'P 1'
_cell_length_a   13.69837590
_cell_length_b   13.69837590
_cell_length_c   8.04910655
_cell_angle_alpha   90.00000000
_cell_angle_beta   90.00000000
_cell_angle_gamma   90.00000000
_symmetry_Int_Tables_number   1
_chemical_formula_structural   Li2Si4Te3F12
_chemical_formula_sum   'Li8 Si16 Te12 F48'
_cell_volume   1510.37864049
_cell_formula_units_Z   4
loop_
 _symmetry_equiv_pos_site_id
 _symmetry_equiv_pos_as_xyz
  1  'x, y, z'
loop_
 _atom_site_type_symbol
 _atom_site_label
 _atom_site_symmetry_multiplicity
 _atom_site_fract_x
 _atom_site_fract_y
 _atom_site_fract_z
 _atom_site_occupancy
  F  F0  1  0.47646565  0.00000000  0.00000000  1
  F  F1  1  0.02353435  0.00000000  0.50000000  1
  F  F2  1  0.25000000  0.22646565  0.25000000  1
  F  F3  1  0.25000000  0.77353435  0.75000000  1
  F  F4  1  0.52353435  0.00000000  0.00000000  1
  F  F5  1  0.97646565  0.00000000  0.50000000  1
  F  F6  1  0.75000000  0.77353435  0.75000000  1
  F  F7  1  0.75000000  0.22646565  0.25000000  1
  F  F8  1  0.97646565  0.50000000  0.50000000  1
  F  F9  1  0.52353435  0.50000000  0.00000000  1
  F  F10  1  0.75000000  0.72646565  0.75000000  1
  F  F11  1  0.75000000  0.27353435  0.25000000  1
  F  F12  1  0.02353435  0.50000000  0.50000000  1
  F  F13  1  0.47646565  0.50000000  -0.00000000  1
  F  F14  1  0.25000000  0.27353435  0.25000000  1
  F  F15  1  0.25000000  0.72646565  0.75000000  1
  F  F16  1  0.05521580  0.32475832  0.06379220  1
  F  F17  1  0.44478420  -0.32475832  0.56379220  1
  F  F18  1  -0.07475832  0.80521580  0.31379220  1
  F  F19  1  0.57475832  0.19478420  0.81379220  1
  F  F20  1  0.44478420  0.32475832  0.43620780  1
  F  F21  1  0.05521580  -0.32475832  -0.06379220  1
  F  F22  1  0.57475832  0.80521580  0.18620780  1
  F  F23  1  -0.07475832  0.19478420  0.68620780  1
  F  F24  1  -0.05521580  -0.32475832  -0.06379220  1
  F  F25  1  0.55521580  0.32475832  0.43620780  1
  F  F26  1  1.07475832  0.19478420  0.68620780  1
  F  F27  1  0.42524168  0.80521580  0.18620780  1
  F  F28  1  0.55521580  -0.32475832  0.56379220  1
  F  F29  1  -0.05521580  0.32475832  0.06379220  1
  F  F30  1  0.42524168  0.19478420  0.81379220  1
  F  F31  1  1.07475832  0.80521580  0.31379220  1
  F  F32  1  0.55521580  0.82475832  0.56379220  1
  F  F33  1  0.94478420  0.17524168  1.06379220  1
  F  F34  1  0.42524168  1.30521580  0.81379220  1
  F  F35  1  1.07475832  0.69478420  1.31379220  1
  F  F36  1  0.94478420  0.82475832  0.93620780  1
  F  F37  1  0.55521580  0.17524168  0.43620780  1
  F  F38  1  1.07475832  1.30521580  0.68620780  1
  F  F39  1  0.42524168  0.69478420  1.18620780  1
  F  F40  1  0.44478420  0.17524168  0.43620780  1
  F  F41  1  1.05521580  0.82475832  0.93620780  1
  F  F42  1  1.57475832  0.69478420  1.18620780  1
  F  F43  1  0.92524168  1.30521580  0.68620780  1
  F  F44  1  1.05521580  0.17524168  1.06379220  1
  F  F45  1  0.44478420  0.82475832  0.56379220  1
  F  F46  1  0.92524168  0.69478420  1.31379220  1
  F  F47  1  1.57475832  1.30521580  0.81379220  1
  Li  Li48  1  0.00000000  0.25000000  0.56508059  1
  Li  Li49  1  0.00000000  0.75000000  0.81508059  1
  Li  Li50  1  0.50000000  0.25000000  0.93491941  1
  Li  Li51  1  0.50000000  0.75000000  0.68491941  1
  Li  Li52  1  0.50000000  0.75000000  0.06508059  1
  Li  Li53  1  0.50000000  0.25000000  0.31508059  1
  Li  Li54  1  0.00000000  0.75000000  0.43491941  1
  Li  Li55  1  0.00000000  0.25000000  0.18491941  1
  Si  Si56  1  0.00000000  0.38057523  0.01084108  1
  Si  Si57  1  0.50000000  0.61942477  0.51084108  1
  Si  Si58  1  0.86942477  0.75000000  0.26084108  1
  Si  Si59  1  0.63057523  0.25000000  0.76084108  1
  Si  Si60  1  0.50000000  0.38057523  0.48915892  1
  Si  Si61  1  0.00000000  0.61942477  0.98915892  1
  Si  Si62  1  0.63057523  0.75000000  0.23915892  1
  Si  Si63  1  0.86942477  0.25000000  0.73915892  1
  Si  Si64  1  0.50000000  0.88057523  0.51084108  1
  Si  Si65  1  0.00000000  0.11942477  0.01084108  1
  Si  Si66  1  0.36942477  0.25000000  0.76084108  1
  Si  Si67  1  0.13057523  0.75000000  0.26084108  1
  Si  Si68  1  0.00000000  0.88057523  0.98915892  1
  Si  Si69  1  0.50000000  0.11942477  0.48915892  1
  Si  Si70  1  0.13057523  0.25000000  0.73915892  1
  Si  Si71  1  0.36942477  0.75000000  0.23915892  1
  Te  Te72  1  0.00000000  0.00000000  0.00000000  1
  Te  Te73  1  0.50000000  0.00000000  0.50000000  1
  Te  Te74  1  0.25000000  0.75000000  0.25000000  1
  Te  Te75  1  0.25000000  0.25000000  0.75000000  1
  Te  Te76  1  0.50000000  0.50000000  0.50000000  1
  Te  Te77  1  0.00000000  0.50000000  0.00000000  1
  Te  Te78  1  0.75000000  0.25000000  0.75000000  1
  Te  Te79  1  0.75000000  0.75000000  0.25000000  1
  Te  Te80  1  0.00000000  0.25000000  0.37500000  1
  Te  Te81  1  0.00000000  0.75000000  0.62500000  1
  Te  Te82  1  0.50000000  0.75000000  0.87500000  1
  Te  Te83  1  0.50000000  0.25000000  0.12500000  1
