# generated using pymatgen
data_Li4TeF2
_symmetry_space_group_name_H-M   'P 1'
_cell_length_a   13.19606537
_cell_length_b   18.09138390
_cell_length_c   10.54234485
_cell_angle_alpha   90.00000000
_cell_angle_beta   90.00000000
_cell_angle_gamma   90.00000000
_symmetry_Int_Tables_number   1
_chemical_formula_structural   Li4TeF2
_chemical_formula_sum   'Li96 Te24 F48'
_cell_volume   2516.82759025
_cell_formula_units_Z   24
loop_
 _symmetry_equiv_pos_site_id
 _symmetry_equiv_pos_as_xyz
  1  'x, y, z'
loop_
 _atom_site_type_symbol
 _atom_site_label
 _atom_site_symmetry_multiplicity
 _atom_site_fract_x
 _atom_site_fract_y
 _atom_site_fract_z
 _atom_site_occupancy
  F  F0  1  0.00000000  0.00000000  0.00000000  1
  F  F1  1  0.50000000  0.50000000  0.00000000  1
  F  F2  1  0.20438784  0.99930794  0.85627919  1
  F  F3  1  -0.20438784  -0.99930794  0.85627919  1
  F  F4  1  0.29561216  1.49930794  -0.85627919  1
  F  F5  1  0.70438784  -0.49930794  -0.85627919  1
  F  F6  1  -0.20438784  -0.99930794  -0.85627919  1
  F  F7  1  0.20438784  0.99930794  -0.85627919  1
  F  F8  1  0.70438784  -0.49930794  0.85627919  1
  F  F9  1  0.29561216  1.49930794  0.85627919  1
  F  F10  1  0.67998157  0.26656758  0.50000000  1
  F  F11  1  0.32001843  0.73343242  0.50000000  1
  F  F12  1  0.82001843  0.76656758  0.50000000  1
  F  F13  1  0.17998157  0.23343242  0.50000000  1
  F  F14  1  0.14552060  0.84688326  -0.00000000  1
  F  F15  1  0.85447940  0.15311674  0.00000000  1
  F  F16  1  0.35447940  0.34688326  -0.00000000  1
  F  F17  1  0.64552060  0.65311674  0.00000000  1
  F  F18  1  0.18255169  0.63001165  0.33650103  1
  F  F19  1  0.81744831  0.36998835  0.33650103  1
  F  F20  1  0.31744831  0.13001165  0.66349897  1
  F  F21  1  0.68255169  0.86998835  0.66349897  1
  F  F22  1  0.81744831  0.36998835  0.66349897  1
  F  F23  1  0.18255169  0.63001165  0.66349897  1
  F  F24  1  0.68255169  0.86998835  0.33650103  1
  F  F25  1  0.31744831  0.13001165  0.33650103  1
  F  F26  1  0.89546342  0.18131039  0.55548971  1
  F  F27  1  0.10453658  0.81868961  0.55548971  1
  F  F28  1  0.60453658  0.68131039  0.44451029  1
  F  F29  1  0.39546342  0.31868961  0.44451029  1
  F  F30  1  0.10453658  0.81868961  0.44451029  1
  F  F31  1  0.89546342  0.18131039  0.44451029  1
  F  F32  1  0.39546342  0.31868961  0.55548971  1
  F  F33  1  0.60453658  0.68131039  0.55548971  1
  F  F34  1  0.00000000  0.00000000  0.50000000  1
  F  F35  1  0.50000000  0.50000000  0.50000000  1
  F  F36  1  0.70262452  0.00121229  0.39891364  1
  F  F37  1  0.29737548  0.99878771  0.39891364  1
  F  F38  1  0.79737548  0.50121229  0.60108636  1
  F  F39  1  0.20262452  0.49878771  0.60108636  1
  F  F40  1  0.29737548  0.99878771  0.60108636  1
  F  F41  1  0.70262452  0.00121229  0.60108636  1
  F  F42  1  0.20262452  0.49878771  0.39891364  1
  F  F43  1  0.79737548  0.50121229  0.39891364  1
  F  F44  1  0.00000000  0.00000000  0.59534889  1
  F  F45  1  0.50000000  0.50000000  0.40465111  1
  F  F46  1  0.00000000  0.00000000  0.40465111  1
  F  F47  1  0.50000000  0.50000000  0.59534889  1
  Li  Li48  1  0.93682855  0.28823517  0.50000000  1
  Li  Li49  1  0.06317145  0.71176483  0.50000000  1
  Li  Li50  1  0.56317145  0.78823517  0.50000000  1
  Li  Li51  1  0.43682855  0.21176483  0.50000000  1
  Li  Li52  1  0.41512941  0.50552101  0.16259852  1
  Li  Li53  1  0.58487059  0.49447899  0.16259852  1
  Li  Li54  1  0.08487059  0.00552101  0.83740148  1
  Li  Li55  1  0.91512941  0.99447899  0.83740148  1
  Li  Li56  1  0.58487059  0.49447899  0.83740148  1
  Li  Li57  1  0.41512941  0.50552101  0.83740148  1
  Li  Li58  1  0.91512941  0.99447899  0.16259852  1
  Li  Li59  1  0.08487059  0.00552101  0.16259852  1
  Li  Li60  1  0.45901575  0.03697609  0.64220173  1
  Li  Li61  1  0.54098425  0.96302391  0.64220173  1
  Li  Li62  1  0.04098425  0.53697609  0.35779827  1
  Li  Li63  1  0.95901575  0.46302391  0.35779827  1
  Li  Li64  1  0.54098425  0.96302391  0.35779827  1
  Li  Li65  1  0.45901575  0.03697609  0.35779827  1
  Li  Li66  1  0.95901575  0.46302391  0.64220173  1
  Li  Li67  1  0.04098425  0.53697609  0.64220173  1
  Li  Li68  1  0.43234282  0.42997340  0.31732242  1
  Li  Li69  1  0.56765718  0.57002660  0.31732242  1
  Li  Li70  1  0.06765718  0.92997340  0.68267758  1
  Li  Li71  1  0.93234282  0.07002660  0.68267758  1
  Li  Li72  1  0.56765718  0.57002660  0.68267758  1
  Li  Li73  1  0.43234282  0.42997340  0.68267758  1
  Li  Li74  1  0.93234282  0.07002660  0.31732242  1
  Li  Li75  1  0.06765718  0.92997340  0.31732242  1
  Li  Li76  1  0.23201367  0.66386759  0.00000000  1
  Li  Li77  1  0.76798633  0.33613241  0.00000000  1
  Li  Li78  1  0.26798633  0.16386759  0.00000000  1
  Li  Li79  1  0.73201367  0.83613241  -0.00000000  1
  Li  Li80  1  0.53862071  0.39154866  0.14035090  1
  Li  Li81  1  0.46137929  0.60845134  0.14035090  1
  Li  Li82  1  0.96137929  0.89154866  0.85964910  1
  Li  Li83  1  0.03862071  0.10845134  0.85964910  1
  Li  Li84  1  0.46137929  0.60845134  0.85964910  1
  Li  Li85  1  0.53862071  0.39154866  0.85964910  1
  Li  Li86  1  0.03862071  0.10845134  0.14035090  1
  Li  Li87  1  0.96137929  0.89154866  0.14035090  1
  Li  Li88  1  0.90294152  0.35422774  0.41385793  1
  Li  Li89  1  0.09705848  0.64577226  0.41385793  1
  Li  Li90  1  0.59705848  0.85422774  0.58614207  1
  Li  Li91  1  0.40294152  0.14577226  0.58614207  1
  Li  Li92  1  0.09705848  0.64577226  0.58614207  1
  Li  Li93  1  0.90294152  0.35422774  0.58614207  1
  Li  Li94  1  0.40294152  0.14577226  0.41385793  1
  Li  Li95  1  0.59705848  0.85422774  0.41385793  1
  Li  Li96  1  0.98724647  0.55418599  0.90761739  1
  Li  Li97  1  0.01275353  0.44581401  0.90761739  1
  Li  Li98  1  0.51275353  0.05418599  0.09238261  1
  Li  Li99  1  0.48724647  0.94581401  0.09238261  1
  Li  Li100  1  0.01275353  0.44581401  0.09238261  1
  Li  Li101  1  0.98724647  0.55418599  0.09238261  1
  Li  Li102  1  0.48724647  0.94581401  0.90761739  1
  Li  Li103  1  0.51275353  0.05418599  0.90761739  1
  Li  Li104  1  0.69753936  0.19964352  0.63730051  1
  Li  Li105  1  0.30246064  0.80035648  0.63730051  1
  Li  Li106  1  0.80246064  0.69964352  0.36269949  1
  Li  Li107  1  0.19753936  0.30035648  0.36269949  1
  Li  Li108  1  0.30246064  0.80035648  0.36269949  1
  Li  Li109  1  0.69753936  0.19964352  0.36269949  1
  Li  Li110  1  0.19753936  0.30035648  0.63730051  1
  Li  Li111  1  0.80246064  0.69964352  0.63730051  1
  Li  Li112  1  0.07052754  0.83175950  0.09891114  1
  Li  Li113  1  0.92947246  0.16824050  0.09891114  1
  Li  Li114  1  0.42947246  0.33175950  0.90108886  1
  Li  Li115  1  0.57052754  0.66824050  0.90108886  1
  Li  Li116  1  0.92947246  0.16824050  0.90108886  1
  Li  Li117  1  0.07052754  0.83175950  0.90108886  1
  Li  Li118  1  0.57052754  0.66824050  0.09891114  1
  Li  Li119  1  0.42947246  0.33175950  0.09891114  1
  Li  Li120  1  0.22353260  0.66832926  0.27663177  1
  Li  Li121  1  0.77646740  0.33167074  0.27663177  1
  Li  Li122  1  0.27646740  0.16832926  0.72336823  1
  Li  Li123  1  0.72353260  0.83167074  0.72336823  1
  Li  Li124  1  0.77646740  0.33167074  0.72336823  1
  Li  Li125  1  0.22353260  0.66832926  0.72336823  1
  Li  Li126  1  0.72353260  0.83167074  0.27663177  1
  Li  Li127  1  0.27646740  0.16832926  0.27663177  1
  Li  Li128  1  0.56654441  0.77813856  0.78618239  1
  Li  Li129  1  0.43345559  0.22186144  0.78618239  1
  Li  Li130  1  0.93345559  0.27813856  0.21381761  1
  Li  Li131  1  0.06654441  0.72186144  0.21381761  1
  Li  Li132  1  0.43345559  0.22186144  0.21381761  1
  Li  Li133  1  0.56654441  0.77813856  0.21381761  1
  Li  Li134  1  0.06654441  0.72186144  0.78618239  1
  Li  Li135  1  0.93345559  0.27813856  0.78618239  1
  Li  Li136  1  0.18774302  0.47380000  0.20552741  1
  Li  Li137  1  0.81225698  0.52620000  0.20552741  1
  Li  Li138  1  0.31225698  0.97380000  0.79447259  1
  Li  Li139  1  0.68774302  0.02620000  0.79447259  1
  Li  Li140  1  0.81225698  0.52620000  0.79447259  1
  Li  Li141  1  0.18774302  0.47380000  0.79447259  1
  Li  Li142  1  0.68774302  0.02620000  0.20552741  1
  Li  Li143  1  0.31225698  0.97380000  0.20552741  1
  Te  Te144  1  0.08323543  0.86036007  0.77789399  1
  Te  Te145  1  0.91676457  0.13963993  0.77789399  1
  Te  Te146  1  0.41676457  0.36036007  0.22210601  1
  Te  Te147  1  0.58323543  0.63963993  0.22210601  1
  Te  Te148  1  0.91676457  0.13963993  0.22210601  1
  Te  Te149  1  0.08323543  0.86036007  0.22210601  1
  Te  Te150  1  0.58323543  0.63963993  0.77789399  1
  Te  Te151  1  0.41676457  0.36036007  0.77789399  1
  Te  Te152  1  0.02031497  0.61066578  0.68190512  1
  Te  Te153  1  0.97968503  0.38933422  0.68190512  1
  Te  Te154  1  0.47968503  0.11066578  0.31809488  1
  Te  Te155  1  0.52031497  0.88933422  0.31809488  1
  Te  Te156  1  0.97968503  0.38933422  0.31809488  1
  Te  Te157  1  0.02031497  0.61066578  0.31809488  1
  Te  Te158  1  0.52031497  0.88933422  0.68190512  1
  Te  Te159  1  0.47968503  0.11066578  0.68190512  1
  Te  Te160  1  0.00000000  0.50000000  0.50000000  1
  Te  Te161  1  0.50000000  -0.00000000  0.50000000  1
  Te  Te162  1  0.72462661  0.56504284  0.50000000  1
  Te  Te163  1  0.27537339  0.43495716  0.50000000  1
  Te  Te164  1  0.77537339  0.06504284  0.50000000  1
  Te  Te165  1  0.22462661  0.93495716  0.50000000  1
  Te  Te166  1  0.00000000  0.50000000  0.00000000  1
  Te  Te167  1  0.50000000  -0.00000000  0.00000000  1
