# generated using pymatgen
data_LiF
_symmetry_space_group_name_H-M   'P 1'
_cell_length_a   6.78294714
_cell_length_b   9.15261655
_cell_length_c   4.74090273
_cell_angle_alpha   90.00000000
_cell_angle_beta   90.00000000
_cell_angle_gamma   90.00000000
_symmetry_Int_Tables_number   1
_chemical_formula_structural   LiF
_chemical_formula_sum   'Li8 F8'
_cell_volume   294.32336888
_cell_formula_units_Z   8
loop_
 _symmetry_equiv_pos_site_id
 _symmetry_equiv_pos_as_xyz
  1  'x, y, z'
loop_
 _atom_site_type_symbol
 _atom_site_label
 _atom_site_symmetry_multiplicity
 _atom_site_fract_x
 _atom_site_fract_y
 _atom_site_fract_z
 _atom_site_occupancy
  F  F0  1  0.87699131  0.71537916  0.71392756  1
  F  F1  1  -0.87699131  -0.71537916  0.71392756  1
  F  F2  1  -0.37699131  1.21537916  -0.71392756  1
  F  F3  1  1.37699131  -0.21537916  -0.71392756  1
  F  F4  1  -0.87699131  -0.71537916  -0.71392756  1
  F  F5  1  0.87699131  0.71537916  -0.71392756  1
  F  F6  1  1.37699131  -0.21537916  0.71392756  1
  F  F7  1  -0.37699131  1.21537916  0.71392756  1
  Li  Li8  1  0.00000000  0.50000000  0.50000000  1
  Li  Li9  1  0.50000000  0.00000000  0.50000000  1
  Li  Li10  1  0.73718268  0.89366867  0.00000000  1
  Li  Li11  1  0.26281732  0.10633133  0.00000000  1
  Li  Li12  1  0.76281732  0.39366867  0.00000000  1
  Li  Li13  1  0.23718268  0.60633133  0.00000000  1
  Li  Li14  1  0.00000000  0.50000000  0.00000000  1
  Li  Li15  1  0.50000000  0.00000000  0.00000000  1
