# generated using pymatgen
data_LiF
_symmetry_space_group_name_H-M   'P 1'
_cell_length_a   15.72293975
_cell_length_b   15.72293975
_cell_length_c   5.34769321
_cell_angle_alpha   90.00000000
_cell_angle_beta   90.00000000
_cell_angle_gamma   120.00000000
_symmetry_Int_Tables_number   1
_chemical_formula_structural   LiF
_chemical_formula_sum   'Li39 F39'
_cell_volume   1144.89225186
_cell_formula_units_Z   39
loop_
 _symmetry_equiv_pos_site_id
 _symmetry_equiv_pos_as_xyz
  1  'x, y, z'
loop_
 _atom_site_type_symbol
 _atom_site_label
 _atom_site_symmetry_multiplicity
 _atom_site_fract_x
 _atom_site_fract_y
 _atom_site_fract_z
 _atom_site_occupancy
  F  F0  1  0.24289711  0.78138479  -0.00000000  1
  F  F1  1  0.21861521  0.46151233  -0.00000000  1
  F  F2  1  0.53848767  0.75710289  -0.00000000  1
  F  F3  1  0.78138479  0.24289711  -0.00000000  1
  F  F4  1  0.46151233  0.21861521  0.00000000  1
  F  F5  1  0.75710289  0.53848767  0.00000000  1
  F  F6  1  0.33333333  0.66666667  0.00000000  1
  F  F7  1  0.66666667  0.33333333  0.00000000  1
  F  F8  1  0.19900418  0.62556424  0.50000000  1
  F  F9  1  0.37443576  0.57343993  0.50000000  1
  F  F10  1  0.42656007  0.80099582  0.50000000  1
  F  F11  1  0.62556424  0.19900418  0.50000000  1
  F  F12  1  0.57343993  0.37443576  0.50000000  1
  F  F13  1  0.80099582  0.42656007  0.50000000  1
  F  F14  1  0.18741619  0.45304709  0.07742339  1
  F  F15  1  0.54695291  0.73436910  0.07742339  1
  F  F16  1  0.26563090  0.81258381  0.07742339  1
  F  F17  1  0.18741619  0.45304709  0.92257661  1
  F  F18  1  0.54695291  0.73436910  0.92257661  1
  F  F19  1  0.26563090  0.81258381  0.92257661  1
  F  F20  1  0.45304709  0.18741619  0.92257661  1
  F  F21  1  0.73436910  0.54695291  0.92257661  1
  F  F22  1  0.81258381  0.26563090  0.92257661  1
  F  F23  1  0.45304709  0.18741619  0.07742339  1
  F  F24  1  0.73436910  0.54695291  0.07742339  1
  F  F25  1  0.81258381  0.26563090  0.07742339  1
  F  F26  1  0.20827280  0.51550807  0.18270036  1
  F  F27  1  0.48449193  0.69276474  0.18270036  1
  F  F28  1  0.30723526  0.79172720  0.18270036  1
  F  F29  1  0.20827280  0.51550807  0.81729964  1
  F  F30  1  0.48449193  0.69276474  0.81729964  1
  F  F31  1  0.30723526  0.79172720  0.81729964  1
  F  F32  1  0.51550807  0.20827280  0.81729964  1
  F  F33  1  0.69276474  0.48449193  0.81729964  1
  F  F34  1  0.79172720  0.30723526  0.81729964  1
  F  F35  1  0.51550807  0.20827280  0.18270036  1
  F  F36  1  0.69276474  0.48449193  0.18270036  1
  F  F37  1  0.79172720  0.30723526  0.18270036  1
  F  F38  1  0.00000000  0.00000000  0.50000000  1
  Li  Li39  1  0.11931909  0.50588707  0.00000000  1
  Li  Li40  1  0.49411293  0.61343202  0.00000000  1
  Li  Li41  1  0.38656798  0.88068091  0.00000000  1
  Li  Li42  1  0.50588707  0.11931909  0.00000000  1
  Li  Li43  1  0.61343202  0.49411293  0.00000000  1
  Li  Li44  1  0.88068091  0.38656798  0.00000000  1
  Li  Li45  1  0.00000000  0.00000000  0.30264934  1
  Li  Li46  1  0.00000000  0.00000000  0.69735066  1
  Li  Li47  1  0.59480570  0.00000000  0.00000000  1
  Li  Li48  1  0.00000000  0.59480570  -0.00000000  1
  Li  Li49  1  0.40519430  0.40519430  0.00000000  1
  Li  Li50  1  0.34983993  0.87756391  0.36092589  1
  Li  Li51  1  -0.87756391  -0.52772398  0.36092589  1
  Li  Li52  1  0.52772398  -0.34983993  0.36092589  1
  Li  Li53  1  0.34983993  0.87756391  -0.36092589  1
  Li  Li54  1  -0.87756391  -0.52772398  -0.36092589  1
  Li  Li55  1  0.52772398  -0.34983993  -0.36092589  1
  Li  Li56  1  0.87756391  0.34983993  -0.36092589  1
  Li  Li57  1  -0.52772398  -0.87756391  -0.36092589  1
  Li  Li58  1  -0.34983993  0.52772398  -0.36092589  1
  Li  Li59  1  0.87756391  0.34983993  0.36092589  1
  Li  Li60  1  -0.52772398  -0.87756391  0.36092589  1
  Li  Li61  1  -0.34983993  0.52772398  0.36092589  1
  Li  Li62  1  0.67984730  0.19525900  0.15728504  1
  Li  Li63  1  0.80474100  0.48458830  0.15728504  1
  Li  Li64  1  0.51541170  0.32015270  0.15728504  1
  Li  Li65  1  0.67984730  0.19525900  0.84271496  1
  Li  Li66  1  0.80474100  0.48458830  0.84271496  1
  Li  Li67  1  0.51541170  0.32015270  0.84271496  1
  Li  Li68  1  0.19525900  0.67984730  0.84271496  1
  Li  Li69  1  0.48458830  0.80474100  0.84271496  1
  Li  Li70  1  0.32015270  0.51541170  0.84271496  1
  Li  Li71  1  0.19525900  0.67984730  0.15728504  1
  Li  Li72  1  0.48458830  0.80474100  0.15728504  1
  Li  Li73  1  0.32015270  0.51541170  0.15728504  1
  Li  Li74  1  0.33333333  0.66666667  0.68280791  1
  Li  Li75  1  0.33333333  0.66666667  0.31719209  1
  Li  Li76  1  0.66666667  0.33333333  0.31719209  1
  Li  Li77  1  0.66666667  0.33333333  0.68280791  1
