# generated using pymatgen
data_Li3Y2P3Se2
_symmetry_space_group_name_H-M   'P 1'
_cell_length_a   5.37475168
_cell_length_b   5.65104138
_cell_length_c   7.27966251
_cell_angle_alpha   94.03514644
_cell_angle_beta   98.78771005
_cell_angle_gamma   106.20757950
_symmetry_Int_Tables_number   1
_chemical_formula_structural   Li3Y2P3Se2
_chemical_formula_sum   'Li3 Y2 P3 Se2'
_cell_volume   208.33189262
_cell_formula_units_Z   1
loop_
 _symmetry_equiv_pos_site_id
 _symmetry_equiv_pos_as_xyz
  1  'x, y, z'
loop_
 _atom_site_type_symbol
 _atom_site_label
 _atom_site_symmetry_multiplicity
 _atom_site_fract_x
 _atom_site_fract_y
 _atom_site_fract_z
 _atom_site_occupancy
  Se  Se0  1  0.12500000  0.12500000  0.12500000  1
  Se  Se1  1  0.50000000  0.50000000  0.50000000  1
  P  P2  1  0.25000000  0.25000000  0.25000000  1
  P  P3  1  0.75000000  0.75000000  0.75000000  1
  P  P4  1  0.78744030  0.41701347  0.38483884  1
  Li  Li5  1  0.87213784  0.85664820  0.59908471  1
  Li  Li6  1  0.64517886  0.32496750  0.11704530  1
  Li  Li7  1  0.65662427  0.49170268  0.04535714  1
  Y  Y8  1  0.34854610  0.50149292  0.86655556  1
  Y  Y9  1  0.17540503  0.41009181  0.51355445  1
