# generated using pymatgen
data_Li2Y2MoP3Se2
_symmetry_space_group_name_H-M   'P 1'
_cell_length_a   5.30551239
_cell_length_b   5.63546656
_cell_length_c   7.29817142
_cell_angle_alpha   94.19612681
_cell_angle_beta   99.13829183
_cell_angle_gamma   106.85417367
_symmetry_Int_Tables_number   1
_chemical_formula_structural   Li2Y2MoP3Se2
_chemical_formula_sum   'Li2 Y2 Mo1 P3 Se2'
_cell_volume   204.53707544
_cell_formula_units_Z   1
loop_
 _symmetry_equiv_pos_site_id
 _symmetry_equiv_pos_as_xyz
  1  'x, y, z'
loop_
 _atom_site_type_symbol
 _atom_site_label
 _atom_site_symmetry_multiplicity
 _atom_site_fract_x
 _atom_site_fract_y
 _atom_site_fract_z
 _atom_site_occupancy
  Se  Se0  1  0.12500000  0.00000000  0.25000000  1
  Se  Se1  1  0.00000000  0.00000000  0.00000000  1
  P  P2  1  0.37500000  0.00000000  0.25000000  1
  P  P3  1  0.25000000  0.25000000  0.25000000  1
  P  P4  1  0.00000000  0.25000000  0.12500000  1
  Mo  Mo5  1  0.57367632  0.46627795  0.46852429  1
  Li  Li6  1  0.62302527  0.00619912  0.20891020  1
  Li  Li7  1  0.95575232  0.79179585  0.72893232  1
  Y  Y8  1  0.92671876  0.68156792  0.69809590  1
  Y  Y9  1  0.89029450  0.00997489  0.91568508  1
