# generated using pymatgen
data_LiF
_symmetry_space_group_name_H-M   'P 1'
_cell_length_a   9.44406668
_cell_length_b   9.44406668
_cell_length_c   13.17176903
_cell_angle_alpha   90.00000000
_cell_angle_beta   90.00000000
_cell_angle_gamma   120.00000000
_symmetry_Int_Tables_number   1
_chemical_formula_structural   LiF
_chemical_formula_sum   'Li36 F36'
_cell_volume   1017.40256318
_cell_formula_units_Z   36
loop_
 _symmetry_equiv_pos_site_id
 _symmetry_equiv_pos_as_xyz
  1  'x, y, z'
loop_
 _atom_site_type_symbol
 _atom_site_label
 _atom_site_symmetry_multiplicity
 _atom_site_fract_x
 _atom_site_fract_y
 _atom_site_fract_z
 _atom_site_occupancy
  F  F0  1  0.05619321  0.48138153  0.95788237  1
  F  F1  1  -0.48138153  -0.42518832  0.95788237  1
  F  F2  1  0.42518832  -0.05619321  0.95788237  1
  F  F3  1  -0.05619321  -0.48138153  1.45788237  1
  F  F4  1  0.48138153  0.42518832  1.45788237  1
  F  F5  1  -0.42518832  0.05619321  1.45788237  1
  F  F6  1  -0.05619321  -0.48138153  -0.95788237  1
  F  F7  1  0.48138153  0.42518832  -0.95788237  1
  F  F8  1  -0.42518832  0.05619321  -0.95788237  1
  F  F9  1  0.05619321  0.48138153  -0.45788237  1
  F  F10  1  -0.48138153  -0.42518832  -0.45788237  1
  F  F11  1  0.42518832  -0.05619321  -0.45788237  1
  F  F12  1  0.00000000  0.00000000  0.25000000  1
  F  F13  1  0.00000000  0.00000000  0.75000000  1
  F  F14  1  0.01151063  0.71577643  0.29936540  1
  F  F15  1  0.28422357  0.29573419  0.29936540  1
  F  F16  1  0.70426581  0.98848937  0.29936540  1
  F  F17  1  0.98848937  0.28422357  0.79936540  1
  F  F18  1  0.71577643  0.70426581  0.79936540  1
  F  F19  1  0.29573419  0.01151063  0.79936540  1
  F  F20  1  0.98848937  0.28422357  0.70063460  1
  F  F21  1  0.71577643  0.70426581  0.70063460  1
  F  F22  1  0.29573419  0.01151063  0.70063460  1
  F  F23  1  0.01151063  0.71577643  0.20063460  1
  F  F24  1  0.28422357  0.29573419  0.20063460  1
  F  F25  1  0.70426581  0.98848937  0.20063460  1
  F  F26  1  0.00000000  0.00000000  0.87627579  1
  F  F27  1  0.00000000  0.00000000  0.37627579  1
  F  F28  1  0.00000000  0.00000000  0.12372421  1
  F  F29  1  0.00000000  0.00000000  0.62372421  1
  F  F30  1  0.34416336  0.97567628  0.25000000  1
  F  F31  1  0.02432372  0.36848708  0.25000000  1
  F  F32  1  0.63151292  0.65583664  0.25000000  1
  F  F33  1  0.65583664  0.02432372  0.75000000  1
  F  F34  1  0.97567628  0.63151292  0.75000000  1
  F  F35  1  0.36848708  0.34416336  0.75000000  1
  Li  Li36  1  0.57385325  0.71881012  0.16386536  1
  Li  Li37  1  0.28118988  0.85504313  0.16386536  1
  Li  Li38  1  0.14495687  0.42614675  0.16386536  1
  Li  Li39  1  0.42614675  0.28118988  0.66386536  1
  Li  Li40  1  0.71881012  0.14495687  0.66386536  1
  Li  Li41  1  0.85504313  0.57385325  0.66386536  1
  Li  Li42  1  0.42614675  0.28118988  0.83613464  1
  Li  Li43  1  0.71881012  0.14495687  0.83613464  1
  Li  Li44  1  0.85504313  0.57385325  0.83613464  1
  Li  Li45  1  0.57385325  0.71881012  0.33613464  1
  Li  Li46  1  0.28118988  0.85504313  0.33613464  1
  Li  Li47  1  0.14495687  0.42614675  0.33613464  1
  Li  Li48  1  0.96558756  0.36406162  0.63318353  1
  Li  Li49  1  0.63593838  0.60152594  0.63318353  1
  Li  Li50  1  0.39847406  0.03441244  0.63318353  1
  Li  Li51  1  0.03441244  0.63593838  0.13318353  1
  Li  Li52  1  0.36406162  0.39847406  0.13318353  1
  Li  Li53  1  0.60152594  0.96558756  0.13318353  1
  Li  Li54  1  0.03441244  0.63593838  0.36681647  1
  Li  Li55  1  0.36406162  0.39847406  0.36681647  1
  Li  Li56  1  0.60152594  0.96558756  0.36681647  1
  Li  Li57  1  0.96558756  0.36406162  0.86681647  1
  Li  Li58  1  0.63593838  0.60152594  0.86681647  1
  Li  Li59  1  0.39847406  0.03441244  0.86681647  1
  Li  Li60  1  0.79533070  0.37639681  0.25000000  1
  Li  Li61  1  0.62360319  0.41893388  0.25000000  1
  Li  Li62  1  0.58106612  0.20466930  0.25000000  1
  Li  Li63  1  0.20466930  0.62360319  0.75000000  1
  Li  Li64  1  0.37639681  0.58106612  0.75000000  1
  Li  Li65  1  0.41893388  0.79533070  0.75000000  1
  Li  Li66  1  0.93008385  0.59436291  0.25000000  1
  Li  Li67  1  0.40563709  0.33572094  0.25000000  1
  Li  Li68  1  0.66427906  0.06991615  0.25000000  1
  Li  Li69  1  0.06991615  0.40563709  0.75000000  1
  Li  Li70  1  0.59436291  0.66427906  0.75000000  1
  Li  Li71  1  0.33572094  0.93008385  0.75000000  1
