# generated using pymatgen
data_Li2Y2AlP4Se
_symmetry_space_group_name_H-M   'P 1'
_cell_length_a   6.19510930
_cell_length_b   5.80887411
_cell_length_c   7.79438590
_cell_angle_alpha   92.93972251
_cell_angle_beta   95.34964504
_cell_angle_gamma   96.69308517
_symmetry_Int_Tables_number   1
_chemical_formula_structural   Li2Y2AlP4Se
_chemical_formula_sum   'Li2 Y2 Al1 P4 Se1'
_cell_volume   276.82006543
_cell_formula_units_Z   1
loop_
 _symmetry_equiv_pos_site_id
 _symmetry_equiv_pos_as_xyz
  1  'x, y, z'
loop_
 _atom_site_type_symbol
 _atom_site_label
 _atom_site_symmetry_multiplicity
 _atom_site_fract_x
 _atom_site_fract_y
 _atom_site_fract_z
 _atom_site_occupancy
  Al  Al0  1  0.00000000  0.00000000  0.00000000  1
  Se  Se1  1  0.50000000  0.50000000  0.50000000  1
  Y  Y2  1  0.25000000  0.25000000  0.25000000  1
  Y  Y3  1  0.75000000  0.25000000  0.00000000  1
  P  P4  1  0.25000000  0.75000000  0.50000000  1
  P  P5  1  0.84143661  0.29956340  0.14621298  1
  P  P6  1  0.13563646  0.48895916  0.87738434  1
  P  P7  1  0.26922565  0.76259772  0.70162002  1
  Li  Li8  1  0.45756690  0.13494349  0.91335300  1
  Li  Li9  1  0.03968418  0.87494005  0.59196203  1
