# generated using pymatgen
data_Li4TeF2
_symmetry_space_group_name_H-M   'P 1'
_cell_length_a   21.27360443
_cell_length_b   16.85158564
_cell_length_c   7.50012317
_cell_angle_alpha   90.00000000
_cell_angle_beta   90.00000000
_cell_angle_gamma   90.00000000
_symmetry_Int_Tables_number   1
_chemical_formula_structural   Li4TeF2
_chemical_formula_sum   'Li96 Te24 F48'
_cell_volume   2688.74890500
_cell_formula_units_Z   24
loop_
 _symmetry_equiv_pos_site_id
 _symmetry_equiv_pos_as_xyz
  1  'x, y, z'
loop_
 _atom_site_type_symbol
 _atom_site_label
 _atom_site_symmetry_multiplicity
 _atom_site_fract_x
 _atom_site_fract_y
 _atom_site_fract_z
 _atom_site_occupancy
  F  F0  1  0.12754851  0.16808492  0.22378070  1
  F  F1  1  0.37245149  -0.16808492  0.72378070  1
  F  F2  1  -0.12754851  0.66808492  -0.22378070  1
  F  F3  1  0.62754851  0.33191508  0.27621930  1
  F  F4  1  -0.12754851  -0.16808492  -0.22378070  1
  F  F5  1  0.62754851  0.16808492  0.27621930  1
  F  F6  1  0.12754851  0.33191508  0.22378070  1
  F  F7  1  0.37245149  0.66808492  0.72378070  1
  F  F8  1  0.00000000  0.00000000  0.00000000  1
  F  F9  1  0.50000000  0.00000000  0.50000000  1
  F  F10  1  0.00000000  0.50000000  0.00000000  1
  F  F11  1  0.50000000  0.50000000  0.50000000  1
  F  F12  1  0.45764830  0.25000000  0.84884332  1
  F  F13  1  0.04235170  0.75000000  0.34884332  1
  F  F14  1  0.54235170  0.75000000  0.15115668  1
  F  F15  1  0.95764830  0.25000000  0.65115668  1
  F  F16  1  0.98278079  0.98696984  0.22814568  1
  F  F17  1  0.51721921  0.01303016  0.72814568  1
  F  F18  1  0.01721921  0.48696984  0.77185432  1
  F  F19  1  0.48278079  0.51303016  0.27185432  1
  F  F20  1  0.01721921  0.01303016  0.77185432  1
  F  F21  1  0.48278079  0.98696984  0.27185432  1
  F  F22  1  0.98278079  0.51303016  0.22814568  1
  F  F23  1  0.51721921  0.48696984  0.72814568  1
  F  F24  1  0.00000000  0.00000000  0.50000000  1
  F  F25  1  0.50000000  0.00000000  0.00000000  1
  F  F26  1  0.00000000  0.50000000  0.50000000  1
  F  F27  1  0.50000000  0.50000000  0.00000000  1
  F  F28  1  0.34359207  0.87487466  0.13120846  1
  F  F29  1  0.15640793  0.12512534  0.63120846  1
  F  F30  1  0.65640793  0.37487466  0.86879154  1
  F  F31  1  0.84359207  0.62512534  0.36879154  1
  F  F32  1  0.65640793  0.12512534  0.86879154  1
  F  F33  1  0.84359207  0.87487466  0.36879154  1
  F  F34  1  0.34359207  0.62512534  0.13120846  1
  F  F35  1  0.15640793  0.37487466  0.63120846  1
  F  F36  1  0.96203812  0.70149697  0.45897678  1
  F  F37  1  0.53796188  0.29850303  0.95897678  1
  F  F38  1  0.03796188  0.20149697  0.54102322  1
  F  F39  1  0.46203812  0.79850303  0.04102322  1
  F  F40  1  0.03796188  0.29850303  0.54102322  1
  F  F41  1  0.46203812  0.70149697  0.04102322  1
  F  F42  1  0.96203812  0.79850303  0.45897678  1
  F  F43  1  0.53796188  0.20149697  0.95897678  1
  F  F44  1  0.11536018  0.25000000  0.57289129  1
  F  F45  1  0.38463982  0.75000000  0.07289129  1
  F  F46  1  0.88463982  0.75000000  0.42710871  1
  F  F47  1  0.61536018  0.25000000  0.92710871  1
  Li  Li48  1  0.63844814  0.25000000  0.53774532  1
  Li  Li49  1  0.86155186  0.75000000  0.03774532  1
  Li  Li50  1  0.36155186  0.75000000  0.46225468  1
  Li  Li51  1  0.13844814  0.25000000  0.96225468  1
  Li  Li52  1  0.50093950  0.58203816  0.08641872  1
  Li  Li53  1  0.99906050  0.41796184  0.58641872  1
  Li  Li54  1  0.49906050  0.08203816  0.91358128  1
  Li  Li55  1  0.00093950  0.91796184  0.41358128  1
  Li  Li56  1  0.49906050  0.41796184  0.91358128  1
  Li  Li57  1  0.00093950  0.58203816  0.41358128  1
  Li  Li58  1  0.50093950  0.91796184  0.08641872  1
  Li  Li59  1  0.99906050  0.08203816  0.58641872  1
  Li  Li60  1  0.51385573  0.89423239  0.33984241  1
  Li  Li61  1  0.98614427  0.10576761  0.83984241  1
  Li  Li62  1  0.48614427  0.39423239  0.66015759  1
  Li  Li63  1  0.01385573  0.60576761  0.16015759  1
  Li  Li64  1  0.48614427  0.10576761  0.66015759  1
  Li  Li65  1  0.01385573  0.89423239  0.16015759  1
  Li  Li66  1  0.51385573  0.60576761  0.33984241  1
  Li  Li67  1  0.98614427  0.39423239  0.83984241  1
  Li  Li68  1  0.21869439  0.25000000  0.10114806  1
  Li  Li69  1  0.28130561  0.75000000  0.60114806  1
  Li  Li70  1  0.78130561  0.75000000  0.89885194  1
  Li  Li71  1  0.71869439  0.25000000  0.39885194  1
  Li  Li72  1  0.78094820  0.96565363  0.62005884  1
  Li  Li73  1  0.71905180  0.03434637  0.12005884  1
  Li  Li74  1  0.21905180  0.46565363  0.37994116  1
  Li  Li75  1  0.28094820  0.53434637  0.87994116  1
  Li  Li76  1  0.21905180  0.03434637  0.37994116  1
  Li  Li77  1  0.28094820  0.96565363  0.87994116  1
  Li  Li78  1  0.78094820  0.53434637  0.62005884  1
  Li  Li79  1  0.71905180  0.46565363  0.12005884  1
  Li  Li80  1  0.85348240  0.92802816  0.25564229  1
  Li  Li81  1  0.64651760  0.07197184  0.75564229  1
  Li  Li82  1  0.14651760  0.42802816  0.74435771  1
  Li  Li83  1  0.35348240  0.57197184  0.24435771  1
  Li  Li84  1  0.14651760  0.07197184  0.74435771  1
  Li  Li85  1  0.35348240  0.92802816  0.24435771  1
  Li  Li86  1  0.85348240  0.57197184  0.25564229  1
  Li  Li87  1  0.64651760  0.42802816  0.75564229  1
  Li  Li88  1  0.82886201  0.81527476  0.17576957  1
  Li  Li89  1  0.67113799  0.18472524  0.67576957  1
  Li  Li90  1  0.17113799  0.31527476  0.82423043  1
  Li  Li91  1  0.32886201  0.68472524  0.32423043  1
  Li  Li92  1  0.17113799  0.18472524  0.82423043  1
  Li  Li93  1  0.32886201  0.81527476  0.32423043  1
  Li  Li94  1  0.82886201  0.68472524  0.17576957  1
  Li  Li95  1  0.67113799  0.31527476  0.67576957  1
  Li  Li96  1  0.48105236  0.31302516  0.79670562  1
  Li  Li97  1  0.01894764  0.68697484  0.29670562  1
  Li  Li98  1  0.51894764  0.81302516  0.20329438  1
  Li  Li99  1  0.98105236  0.18697484  0.70329438  1
  Li  Li100  1  0.51894764  0.68697484  0.20329438  1
  Li  Li101  1  0.98105236  0.31302516  0.70329438  1
  Li  Li102  1  0.48105236  0.18697484  0.79670562  1
  Li  Li103  1  0.01894764  0.81302516  0.29670562  1
  Li  Li104  1  0.14547367  0.25000000  0.33193292  1
  Li  Li105  1  0.35452633  0.75000000  0.83193292  1
  Li  Li106  1  0.85452633  0.75000000  0.66806708  1
  Li  Li107  1  0.64547367  0.25000000  0.16806708  1
  Li  Li108  1  0.61853543  0.92605573  0.81928163  1
  Li  Li109  1  0.88146457  0.07394427  0.31928163  1
  Li  Li110  1  0.38146457  0.42605573  0.18071837  1
  Li  Li111  1  0.11853543  0.57394427  0.68071837  1
  Li  Li112  1  0.38146457  0.07394427  0.18071837  1
  Li  Li113  1  0.11853543  0.92605573  0.68071837  1
  Li  Li114  1  0.61853543  0.57394427  0.81928163  1
  Li  Li115  1  0.88146457  0.42605573  0.31928163  1
  Li  Li116  1  0.04315629  0.94633014  0.71010579  1
  Li  Li117  1  0.45684371  0.05366986  0.21010579  1
  Li  Li118  1  0.95684371  0.44633014  0.28989421  1
  Li  Li119  1  0.54315629  0.55366986  0.78989421  1
  Li  Li120  1  0.95684371  0.05366986  0.28989421  1
  Li  Li121  1  0.54315629  0.94633014  0.78989421  1
  Li  Li122  1  0.04315629  0.55366986  0.71010579  1
  Li  Li123  1  0.45684371  0.44633014  0.21010579  1
  Li  Li124  1  0.09797941  0.66930346  0.68686598  1
  Li  Li125  1  0.40202059  0.33069654  0.18686598  1
  Li  Li126  1  0.90202059  0.16930346  0.31313402  1
  Li  Li127  1  0.59797941  0.83069654  0.81313402  1
  Li  Li128  1  0.90202059  0.33069654  0.31313402  1
  Li  Li129  1  0.59797941  0.66930346  0.81313402  1
  Li  Li130  1  0.09797941  0.83069654  0.68686598  1
  Li  Li131  1  0.40202059  0.16930346  0.18686598  1
  Li  Li132  1  0.77594272  0.11254603  0.19989329  1
  Li  Li133  1  0.72405728  0.88745397  0.69989329  1
  Li  Li134  1  0.22405728  0.61254603  0.80010671  1
  Li  Li135  1  0.27594272  0.38745397  0.30010671  1
  Li  Li136  1  0.22405728  0.88745397  0.80010671  1
  Li  Li137  1  0.27594272  0.11254603  0.30010671  1
  Li  Li138  1  0.77594272  0.38745397  0.19989329  1
  Li  Li139  1  0.72405728  0.61254603  0.69989329  1
  Li  Li140  1  0.67390972  0.25000000  0.84360824  1
  Li  Li141  1  0.82609028  0.75000000  0.34360824  1
  Li  Li142  1  0.32609028  0.75000000  0.15639176  1
  Li  Li143  1  0.17390972  0.25000000  0.65639176  1
  Te  Te144  1  0.82553320  0.25000000  0.58217002  1
  Te  Te145  1  0.67446680  0.75000000  0.08217002  1
  Te  Te146  1  0.17446680  0.75000000  0.41782998  1
  Te  Te147  1  0.32553320  0.25000000  0.91782998  1
  Te  Te148  1  0.65804199  0.25000000  0.34229020  1
  Te  Te149  1  0.84195801  0.75000000  0.84229020  1
  Te  Te150  1  0.34195801  0.75000000  0.65770980  1
  Te  Te151  1  0.15804199  0.25000000  0.15770980  1
  Te  Te152  1  0.78920771  0.25000000  0.20800874  1
  Te  Te153  1  0.71079229  0.75000000  0.70800874  1
  Te  Te154  1  0.21079229  0.75000000  0.79199126  1
  Te  Te155  1  0.28920771  0.25000000  0.29199126  1
  Te  Te156  1  0.91654022  0.46198351  0.01744657  1
  Te  Te157  1  0.58345978  0.53801649  0.51744657  1
  Te  Te158  1  0.08345978  0.96198351  0.98255343  1
  Te  Te159  1  0.41654022  0.03801649  0.48255343  1
  Te  Te160  1  0.08345978  0.53801649  0.98255343  1
  Te  Te161  1  0.41654022  0.46198351  0.48255343  1
  Te  Te162  1  0.91654022  0.03801649  0.01744657  1
  Te  Te163  1  0.58345978  0.96198351  0.51744657  1
  Te  Te164  1  0.76836025  0.25000000  0.96239718  1
  Te  Te165  1  0.73163975  0.75000000  0.46239718  1
  Te  Te166  1  0.23163975  0.75000000  0.03760282  1
  Te  Te167  1  0.26836025  0.25000000  0.53760282  1
