# generated using pymatgen
data_Li2Si4Te3F12
_symmetry_space_group_name_H-M   'P 1'
_cell_length_a   8.94057676
_cell_length_b   8.94057676
_cell_length_c   15.81178140
_cell_angle_alpha   90.00000000
_cell_angle_beta   90.00000000
_cell_angle_gamma   90.00000000
_symmetry_Int_Tables_number   1
_chemical_formula_structural   Li2Si4Te3F12
_chemical_formula_sum   'Li8 Si16 Te12 F48'
_cell_volume   1263.89755700
_cell_formula_units_Z   4
loop_
 _symmetry_equiv_pos_site_id
 _symmetry_equiv_pos_as_xyz
  1  'x, y, z'
loop_
 _atom_site_type_symbol
 _atom_site_label
 _atom_site_symmetry_multiplicity
 _atom_site_fract_x
 _atom_site_fract_y
 _atom_site_fract_z
 _atom_site_occupancy
  F  F0  1  0.62123458  0.88697143  0.24835577  1
  F  F1  1  -0.12123458  -0.88697143  0.74835577  1
  F  F2  1  -0.63697143  1.37123458  0.49835577  1
  F  F3  1  1.13697143  -0.37123458  0.99835577  1
  F  F4  1  -0.12123458  0.88697143  0.25164423  1
  F  F5  1  0.62123458  -0.88697143  -0.24835577  1
  F  F6  1  1.13697143  1.37123458  0.00164423  1
  F  F7  1  -0.63697143  -0.37123458  0.50164423  1
  F  F8  1  -0.62123458  -0.88697143  -0.24835577  1
  F  F9  1  1.12123458  0.88697143  0.25164423  1
  F  F10  1  1.63697143  -0.37123458  0.50164423  1
  F  F11  1  -0.13697143  1.37123458  0.00164423  1
  F  F12  1  1.12123458  -0.88697143  0.74835577  1
  F  F13  1  -0.62123458  0.88697143  0.24835577  1
  F  F14  1  -0.13697143  -0.37123458  0.99835577  1
  F  F15  1  1.63697143  1.37123458  0.49835577  1
  F  F16  1  1.12123458  1.38697143  0.74835577  1
  F  F17  1  0.37876542  -0.38697143  1.24835577  1
  F  F18  1  -0.13697143  1.87123458  0.99835577  1
  F  F19  1  1.63697143  0.12876542  1.49835577  1
  F  F20  1  0.37876542  1.38697143  0.75164423  1
  F  F21  1  1.12123458  -0.38697143  0.25164423  1
  F  F22  1  1.63697143  1.87123458  0.50164423  1
  F  F23  1  -0.13697143  0.12876542  1.00164423  1
  F  F24  1  -0.12123458  -0.38697143  0.25164423  1
  F  F25  1  1.62123458  1.38697143  0.75164423  1
  F  F26  1  2.13697143  0.12876542  1.00164423  1
  F  F27  1  0.36302857  1.87123458  0.50164423  1
  F  F28  1  1.62123458  -0.38697143  1.24835577  1
  F  F29  1  -0.12123458  1.38697143  0.74835577  1
  F  F30  1  0.36302857  0.12876542  1.49835577  1
  F  F31  1  2.13697143  1.87123458  0.99835577  1
  F  F32  1  0.00000000  0.68230133  0.09057006  1
  F  F33  1  0.50000000  0.31769867  0.59057006  1
  F  F34  1  0.56769867  0.75000000  0.34057006  1
  F  F35  1  0.93230133  0.25000000  0.84057006  1
  F  F36  1  0.50000000  0.68230133  0.40942994  1
  F  F37  1  0.00000000  0.31769867  0.90942994  1
  F  F38  1  0.93230133  0.75000000  0.15942994  1
  F  F39  1  0.56769867  0.25000000  0.65942994  1
  F  F40  1  0.50000000  0.18230133  0.59057006  1
  F  F41  1  0.00000000  0.81769867  0.09057006  1
  F  F42  1  0.06769867  0.25000000  0.84057006  1
  F  F43  1  0.43230133  0.75000000  0.34057006  1
  F  F44  1  0.00000000  0.18230133  0.90942994  1
  F  F45  1  0.50000000  0.81769867  0.40942994  1
  F  F46  1  0.43230133  0.25000000  0.65942994  1
  F  F47  1  0.06769867  0.75000000  0.15942994  1
  Li  Li48  1  0.00000000  0.00000000  0.50000000  1
  Li  Li49  1  0.50000000  0.00000000  0.00000000  1
  Li  Li50  1  0.25000000  0.75000000  0.75000000  1
  Li  Li51  1  0.25000000  0.25000000  0.25000000  1
  Li  Li52  1  0.50000000  0.50000000  0.00000000  1
  Li  Li53  1  0.00000000  0.50000000  0.50000000  1
  Li  Li54  1  0.75000000  0.25000000  0.25000000  1
  Li  Li55  1  0.75000000  0.75000000  0.75000000  1
  Si  Si56  1  0.60327704  0.85327704  0.87500000  1
  Si  Si57  1  0.89672296  0.14672296  0.37500000  1
  Si  Si58  1  0.39672296  0.35327704  0.12500000  1
  Si  Si59  1  0.10327704  0.64672296  0.62500000  1
  Si  Si60  1  0.39672296  0.14672296  0.12500000  1
  Si  Si61  1  0.10327704  0.85327704  0.62500000  1
  Si  Si62  1  0.60327704  0.64672296  0.87500000  1
  Si  Si63  1  0.89672296  0.35327704  0.37500000  1
  Si  Si64  1  0.10327704  0.35327704  0.37500000  1
  Si  Si65  1  0.39672296  0.64672296  0.87500000  1
  Si  Si66  1  0.89672296  0.85327704  0.62500000  1
  Si  Si67  1  0.60327704  0.14672296  0.12500000  1
  Si  Si68  1  0.89672296  0.64672296  0.62500000  1
  Si  Si69  1  0.60327704  0.35327704  0.12500000  1
  Si  Si70  1  0.10327704  0.14672296  0.37500000  1
  Si  Si71  1  0.39672296  0.85327704  0.87500000  1
  Te  Te72  1  0.00000000  0.25000000  0.37500000  1
  Te  Te73  1  0.00000000  0.75000000  0.62500000  1
  Te  Te74  1  0.50000000  0.75000000  0.87500000  1
  Te  Te75  1  0.50000000  0.25000000  0.12500000  1
  Te  Te76  1  0.00000000  0.00000000  0.00000000  1
  Te  Te77  1  0.50000000  0.00000000  0.50000000  1
  Te  Te78  1  0.25000000  0.75000000  0.25000000  1
  Te  Te79  1  0.25000000  0.25000000  0.75000000  1
  Te  Te80  1  0.50000000  0.50000000  0.50000000  1
  Te  Te81  1  0.00000000  0.50000000  0.00000000  1
  Te  Te82  1  0.75000000  0.25000000  0.75000000  1
  Te  Te83  1  0.75000000  0.75000000  0.25000000  1
