# generated using pymatgen
data_LiF
_symmetry_space_group_name_H-M   'P 1'
_cell_length_a   11.29033660
_cell_length_b   11.29033660
_cell_length_c   4.22029891
_cell_angle_alpha   90.00000000
_cell_angle_beta   90.00000000
_cell_angle_gamma   90.00000000
_symmetry_Int_Tables_number   1
_chemical_formula_structural   LiF
_chemical_formula_sum   'Li24 F24'
_cell_volume   537.96867815
_cell_formula_units_Z   24
loop_
 _symmetry_equiv_pos_site_id
 _symmetry_equiv_pos_as_xyz
  1  'x, y, z'
loop_
 _atom_site_type_symbol
 _atom_site_label
 _atom_site_symmetry_multiplicity
 _atom_site_fract_x
 _atom_site_fract_y
 _atom_site_fract_z
 _atom_site_occupancy
  F  F0  1  0.43018713  0.13239672  0.68922919  1
  F  F1  1  -0.43018713  -0.13239672  0.68922919  1
  F  F2  1  -0.13239672  0.43018713  0.68922919  1
  F  F3  1  0.13239672  -0.43018713  0.68922919  1
  F  F4  1  -0.43018713  0.13239672  -0.68922919  1
  F  F5  1  0.43018713  -0.13239672  -0.68922919  1
  F  F6  1  0.13239672  0.43018713  -0.68922919  1
  F  F7  1  -0.13239672  -0.43018713  -0.68922919  1
  F  F8  1  -0.43018713  -0.13239672  -0.68922919  1
  F  F9  1  0.43018713  0.13239672  -0.68922919  1
  F  F10  1  0.13239672  -0.43018713  -0.68922919  1
  F  F11  1  -0.13239672  0.43018713  -0.68922919  1
  F  F12  1  0.43018713  -0.13239672  0.68922919  1
  F  F13  1  -0.43018713  0.13239672  0.68922919  1
  F  F14  1  -0.13239672  -0.43018713  0.68922919  1
  F  F15  1  0.13239672  0.43018713  0.68922919  1
  F  F16  1  0.76254324  0.76254324  -0.00000000  1
  F  F17  1  0.23745676  0.23745676  0.00000000  1
  F  F18  1  0.23745676  0.76254324  0.00000000  1
  F  F19  1  0.76254324  0.23745676  -0.00000000  1
  F  F20  1  0.00000000  0.50000000  0.00000000  1
  F  F21  1  0.50000000  0.00000000  0.00000000  1
  F  F22  1  0.50000000  0.50000000  0.00000000  1
  F  F23  1  0.00000000  0.00000000  0.50000000  1
  Li  Li24  1  0.30890733  0.50000000  0.50000000  1
  Li  Li25  1  0.69109267  0.50000000  0.50000000  1
  Li  Li26  1  0.50000000  0.30890733  0.50000000  1
  Li  Li27  1  0.50000000  0.69109267  0.50000000  1
  Li  Li28  1  0.32981783  0.32981783  0.69951708  1
  Li  Li29  1  0.67018217  0.67018217  0.69951708  1
  Li  Li30  1  0.67018217  0.32981783  0.69951708  1
  Li  Li31  1  0.32981783  0.67018217  0.69951708  1
  Li  Li32  1  0.67018217  0.32981783  0.30048292  1
  Li  Li33  1  0.32981783  0.67018217  0.30048292  1
  Li  Li34  1  0.32981783  0.32981783  0.30048292  1
  Li  Li35  1  0.67018217  0.67018217  0.30048292  1
  Li  Li36  1  0.37734186  0.50000000  -0.00000000  1
  Li  Li37  1  0.62265814  0.50000000  0.00000000  1
  Li  Li38  1  0.50000000  0.37734186  -0.00000000  1
  Li  Li39  1  0.50000000  0.62265814  0.00000000  1
  Li  Li40  1  0.75625280  -0.00000000  0.00000000  1
  Li  Li41  1  0.24374720  -0.00000000  -0.00000000  1
  Li  Li42  1  0.00000000  0.75625280  0.00000000  1
  Li  Li43  1  0.00000000  0.24374720  -0.00000000  1
  Li  Li44  1  0.00000000  0.00000000  0.00000000  1
  Li  Li45  1  0.00000000  0.50000000  0.50000000  1
  Li  Li46  1  0.50000000  0.00000000  0.50000000  1
  Li  Li47  1  0.50000000  0.50000000  0.50000000  1
