# generated using pymatgen
data_Li4TeF2
_symmetry_space_group_name_H-M   'P 1'
_cell_length_a   9.65408905
_cell_length_b   9.65408905
_cell_length_c   33.19775438
_cell_angle_alpha   90.00000000
_cell_angle_beta   90.00000000
_cell_angle_gamma   90.00000000
_symmetry_Int_Tables_number   1
_chemical_formula_structural   Li4TeF2
_chemical_formula_sum   'Li96 Te24 F48'
_cell_volume   3094.07835638
_cell_formula_units_Z   24
loop_
 _symmetry_equiv_pos_site_id
 _symmetry_equiv_pos_as_xyz
  1  'x, y, z'
loop_
 _atom_site_type_symbol
 _atom_site_label
 _atom_site_symmetry_multiplicity
 _atom_site_fract_x
 _atom_site_fract_y
 _atom_site_fract_z
 _atom_site_occupancy
  F  F0  1  0.81958065  0.64331256  0.82417159  1
  F  F1  1  -0.31958065  -0.64331256  1.32417159  1
  F  F2  1  -0.39331256  1.56958065  1.07417159  1
  F  F3  1  0.89331256  -0.56958065  1.57417159  1
  F  F4  1  -0.31958065  0.64331256  -0.82417159  1
  F  F5  1  0.81958065  -0.64331256  -0.32417159  1
  F  F6  1  0.89331256  1.56958065  -0.07417159  1
  F  F7  1  -0.39331256  -0.56958065  -0.57417159  1
  F  F8  1  -0.81958065  -0.64331256  -0.82417159  1
  F  F9  1  1.31958065  0.64331256  -0.32417159  1
  F  F10  1  1.39331256  -0.56958065  -0.07417159  1
  F  F11  1  0.10668744  1.56958065  -0.57417159  1
  F  F12  1  1.31958065  -0.64331256  0.82417159  1
  F  F13  1  -0.81958065  0.64331256  1.32417159  1
  F  F14  1  0.10668744  -0.56958065  1.07417159  1
  F  F15  1  1.39331256  1.56958065  1.57417159  1
  F  F16  1  1.31958065  1.14331256  1.32417159  1
  F  F17  1  0.18041935  -0.14331256  1.82417159  1
  F  F18  1  0.10668744  2.06958065  1.57417159  1
  F  F19  1  1.39331256  -0.06958065  2.07417159  1
  F  F20  1  0.18041935  1.14331256  -0.32417159  1
  F  F21  1  1.31958065  -0.14331256  0.17582841  1
  F  F22  1  1.39331256  2.06958065  0.42582841  1
  F  F23  1  0.10668744  -0.06958065  -0.07417159  1
  F  F24  1  -0.31958065  -0.14331256  -0.32417159  1
  F  F25  1  1.81958065  1.14331256  0.17582841  1
  F  F26  1  1.89331256  -0.06958065  0.42582841  1
  F  F27  1  0.60668744  2.06958065  -0.07417159  1
  F  F28  1  1.81958065  -0.14331256  1.32417159  1
  F  F29  1  -0.31958065  1.14331256  1.82417159  1
  F  F30  1  0.60668744  -0.06958065  1.57417159  1
  F  F31  1  1.89331256  2.06958065  2.07417159  1
  F  F32  1  0.05083948  0.30083948  0.12500000  1
  F  F33  1  0.44916052  0.69916052  0.62500000  1
  F  F34  1  0.94916052  0.80083948  0.37500000  1
  F  F35  1  0.55083948  0.19916052  0.87500000  1
  F  F36  1  0.94916052  0.69916052  0.87500000  1
  F  F37  1  0.55083948  0.30083948  0.37500000  1
  F  F38  1  0.05083948  0.19916052  0.62500000  1
  F  F39  1  0.44916052  0.80083948  0.12500000  1
  F  F40  1  0.55083948  0.80083948  0.62500000  1
  F  F41  1  0.94916052  0.19916052  0.12500000  1
  F  F42  1  0.44916052  0.30083948  0.87500000  1
  F  F43  1  0.05083948  0.69916052  0.37500000  1
  F  F44  1  0.44916052  0.19916052  0.37500000  1
  F  F45  1  0.05083948  0.80083948  0.87500000  1
  F  F46  1  0.55083948  0.69916052  0.12500000  1
  F  F47  1  0.94916052  0.30083948  0.62500000  1
  Li  Li48  1  0.75995203  0.27344390  0.63117811  1
  Li  Li49  1  0.74004797  0.72655610  0.13117811  1
  Li  Li50  1  0.97655610  0.50995203  0.88117811  1
  Li  Li51  1  0.52344390  0.49004797  0.38117811  1
  Li  Li52  1  0.74004797  0.27344390  0.36882189  1
  Li  Li53  1  0.75995203  0.72655610  0.86882189  1
  Li  Li54  1  0.52344390  0.50995203  0.11882189  1
  Li  Li55  1  0.97655610  0.49004797  0.61882189  1
  Li  Li56  1  0.24004797  0.72655610  0.36882189  1
  Li  Li57  1  0.25995203  0.27344390  0.86882189  1
  Li  Li58  1  0.02344390  0.49004797  0.11882189  1
  Li  Li59  1  0.47655610  0.50995203  0.61882189  1
  Li  Li60  1  0.25995203  0.72655610  0.63117811  1
  Li  Li61  1  0.24004797  0.27344390  0.13117811  1
  Li  Li62  1  0.47655610  0.49004797  0.88117811  1
  Li  Li63  1  0.02344390  0.50995203  0.38117811  1
  Li  Li64  1  0.25995203  0.77344390  0.13117811  1
  Li  Li65  1  0.24004797  0.22655610  0.63117811  1
  Li  Li66  1  0.47655610  0.00995203  0.38117811  1
  Li  Li67  1  0.02344390  0.99004797  0.88117811  1
  Li  Li68  1  0.24004797  0.77344390  0.86882189  1
  Li  Li69  1  0.25995203  0.22655610  0.36882189  1
  Li  Li70  1  0.02344390  0.00995203  0.61882189  1
  Li  Li71  1  0.47655610  0.99004797  0.11882189  1
  Li  Li72  1  0.74004797  0.22655610  0.86882189  1
  Li  Li73  1  0.75995203  0.77344390  0.36882189  1
  Li  Li74  1  0.52344390  0.99004797  0.61882189  1
  Li  Li75  1  0.97655610  0.00995203  0.11882189  1
  Li  Li76  1  0.75995203  0.22655610  0.13117811  1
  Li  Li77  1  0.74004797  0.77344390  0.63117811  1
  Li  Li78  1  0.97655610  0.99004797  0.38117811  1
  Li  Li79  1  0.52344390  0.00995203  0.88117811  1
  Li  Li80  1  0.90244380  0.88991616  0.46899602  1
  Li  Li81  1  0.59755620  0.11008384  0.96899602  1
  Li  Li82  1  0.36008384  0.65244380  0.71899602  1
  Li  Li83  1  0.13991616  0.34755620  0.21899602  1
  Li  Li84  1  0.59755620  0.88991616  0.53100398  1
  Li  Li85  1  0.90244380  0.11008384  0.03100398  1
  Li  Li86  1  0.13991616  0.65244380  0.28100398  1
  Li  Li87  1  0.36008384  0.34755620  0.78100398  1
  Li  Li88  1  0.09755620  0.11008384  0.53100398  1
  Li  Li89  1  0.40244380  0.88991616  0.03100398  1
  Li  Li90  1  0.63991616  0.34755620  0.28100398  1
  Li  Li91  1  0.86008384  0.65244380  0.78100398  1
  Li  Li92  1  0.40244380  0.11008384  0.46899602  1
  Li  Li93  1  0.09755620  0.88991616  0.96899602  1
  Li  Li94  1  0.86008384  0.34755620  0.71899602  1
  Li  Li95  1  0.63991616  0.65244380  0.21899602  1
  Li  Li96  1  0.40244380  0.38991616  0.96899602  1
  Li  Li97  1  0.09755620  0.61008384  0.46899602  1
  Li  Li98  1  0.86008384  0.15244380  0.21899602  1
  Li  Li99  1  0.63991616  0.84755620  0.71899602  1
  Li  Li100  1  0.09755620  0.38991616  0.03100398  1
  Li  Li101  1  0.40244380  0.61008384  0.53100398  1
  Li  Li102  1  0.63991616  0.15244380  0.78100398  1
  Li  Li103  1  0.86008384  0.84755620  0.28100398  1
  Li  Li104  1  0.59755620  0.61008384  0.03100398  1
  Li  Li105  1  0.90244380  0.38991616  0.53100398  1
  Li  Li106  1  0.13991616  0.84755620  0.78100398  1
  Li  Li107  1  0.36008384  0.15244380  0.28100398  1
  Li  Li108  1  0.90244380  0.61008384  0.96899602  1
  Li  Li109  1  0.59755620  0.38991616  0.46899602  1
  Li  Li110  1  0.36008384  0.84755620  0.21899602  1
  Li  Li111  1  0.13991616  0.15244380  0.71899602  1
  Li  Li112  1  0.91888042  0.75498830  0.44669400  1
  Li  Li113  1  0.58111958  0.24501170  0.94669400  1
  Li  Li114  1  0.49501170  0.66888042  0.69669400  1
  Li  Li115  1  0.00498830  0.33111958  0.19669400  1
  Li  Li116  1  0.58111958  0.75498830  0.55330600  1
  Li  Li117  1  0.91888042  0.24501170  0.05330600  1
  Li  Li118  1  0.00498830  0.66888042  0.30330600  1
  Li  Li119  1  0.49501170  0.33111958  0.80330600  1
  Li  Li120  1  0.08111958  0.24501170  0.55330600  1
  Li  Li121  1  0.41888042  0.75498830  0.05330600  1
  Li  Li122  1  0.50498830  0.33111958  0.30330600  1
  Li  Li123  1  0.99501170  0.66888042  0.80330600  1
  Li  Li124  1  0.41888042  0.24501170  0.44669400  1
  Li  Li125  1  0.08111958  0.75498830  0.94669400  1
  Li  Li126  1  0.99501170  0.33111958  0.69669400  1
  Li  Li127  1  0.50498830  0.66888042  0.19669400  1
  Li  Li128  1  0.41888042  0.25498830  0.94669400  1
  Li  Li129  1  0.08111958  0.74501170  0.44669400  1
  Li  Li130  1  0.99501170  0.16888042  0.19669400  1
  Li  Li131  1  0.50498830  0.83111958  0.69669400  1
  Li  Li132  1  0.08111958  0.25498830  0.05330600  1
  Li  Li133  1  0.41888042  0.74501170  0.55330600  1
  Li  Li134  1  0.50498830  0.16888042  0.80330600  1
  Li  Li135  1  0.99501170  0.83111958  0.30330600  1
  Li  Li136  1  0.58111958  0.74501170  0.05330600  1
  Li  Li137  1  0.91888042  0.25498830  0.55330600  1
  Li  Li138  1  0.00498830  0.83111958  0.80330600  1
  Li  Li139  1  0.49501170  0.16888042  0.30330600  1
  Li  Li140  1  0.91888042  0.74501170  0.94669400  1
  Li  Li141  1  0.58111958  0.25498830  0.44669400  1
  Li  Li142  1  0.49501170  0.83111958  0.19669400  1
  Li  Li143  1  0.00498830  0.16888042  0.69669400  1
  Te  Te144  1  0.00000000  0.25000000  0.37500000  1
  Te  Te145  1  0.00000000  0.75000000  0.62500000  1
  Te  Te146  1  0.50000000  0.25000000  0.62500000  1
  Te  Te147  1  0.50000000  0.75000000  0.37500000  1
  Te  Te148  1  0.50000000  0.75000000  0.87500000  1
  Te  Te149  1  0.50000000  0.25000000  0.12500000  1
  Te  Te150  1  0.00000000  0.75000000  0.12500000  1
  Te  Te151  1  0.00000000  0.25000000  0.87500000  1
  Te  Te152  1  0.21361383  0.00000000  0.25000000  1
  Te  Te153  1  0.28638617  0.00000000  0.75000000  1
  Te  Te154  1  0.25000000  0.96361383  0.50000000  1
  Te  Te155  1  0.25000000  0.03638617  -0.00000000  1
  Te  Te156  1  0.78638617  -0.00000000  0.75000000  1
  Te  Te157  1  0.71361383  0.00000000  0.25000000  1
  Te  Te158  1  0.75000000  0.03638617  0.50000000  1
  Te  Te159  1  0.75000000  0.96361383  0.00000000  1
  Te  Te160  1  0.71361383  0.50000000  0.75000000  1
  Te  Te161  1  0.78638617  0.50000000  0.25000000  1
  Te  Te162  1  0.75000000  0.46361383  0.00000000  1
  Te  Te163  1  0.75000000  0.53638617  0.50000000  1
  Te  Te164  1  0.28638617  0.50000000  0.25000000  1
  Te  Te165  1  0.21361383  0.50000000  0.75000000  1
  Te  Te166  1  0.25000000  0.53638617  0.00000000  1
  Te  Te167  1  0.25000000  0.46361383  0.50000000  1
