# generated using pymatgen
data_LiYTe2As2P
_symmetry_space_group_name_H-M   'P 1'
_cell_length_a   5.22126544
_cell_length_b   5.42675785
_cell_length_c   7.02807437
_cell_angle_alpha   94.60986666
_cell_angle_beta   100.03933121
_cell_angle_gamma   108.51600221
_symmetry_Int_Tables_number   1
_chemical_formula_structural   LiYTe2As2P
_chemical_formula_sum   'Li2 Y2 Te4 As4 P2'
_cell_volume   183.96260607
_cell_formula_units_Z   2
loop_
 _symmetry_equiv_pos_site_id
 _symmetry_equiv_pos_as_xyz
  1  'x, y, z'
loop_
 _atom_site_type_symbol
 _atom_site_label
 _atom_site_symmetry_multiplicity
 _atom_site_fract_x
 _atom_site_fract_y
 _atom_site_fract_z
 _atom_site_occupancy
  Te  Te0  1  0.00000000  0.00000000  0.00000000  1
  Te  Te1  1  0.50000000  0.50000000  0.50000000  1
  Te  Te2  1  0.50000000  0.50000000  0.00000000  1
  Te  Te3  1  0.50000000  0.00000000  0.50000000  1
  P  P4  1  0.00000000  0.50000000  0.50000000  1
  P  P5  1  0.06360701  0.38891966  0.80006119  1
  As  As6  1  0.57773876  0.85736462  0.98288494  1
  As  As7  1  0.87631296  0.92670048  0.58295455  1
  As  As8  1  0.69069579  0.23821317  0.59047847  1
  As  As9  1  0.68509257  0.68554756  0.86881327  1
  Li  Li10  1  0.63851461  0.45939657  0.07587648  1
  Li  Li11  1  0.10456410  0.62477572  0.70152013  1
  Y  Y12  1  0.85627043  0.06699265  0.17529424  1
  Y  Y13  1  0.32849573  0.67226634  0.15476904  1
