# generated using pymatgen
data_LiF
_symmetry_space_group_name_H-M   'P 1'
_cell_length_a   8.42816871
_cell_length_b   8.42816871
_cell_length_c   8.42816871
_cell_angle_alpha   90.00000000
_cell_angle_beta   90.00000000
_cell_angle_gamma   90.00000000
_symmetry_Int_Tables_number   1
_chemical_formula_structural   LiF
_chemical_formula_sum   'Li24 F24'
_cell_volume   598.68677133
_cell_formula_units_Z   24
loop_
 _symmetry_equiv_pos_site_id
 _symmetry_equiv_pos_as_xyz
  1  'x, y, z'
loop_
 _atom_site_type_symbol
 _atom_site_label
 _atom_site_symmetry_multiplicity
 _atom_site_fract_x
 _atom_site_fract_y
 _atom_site_fract_z
 _atom_site_occupancy
  F  F0  1  0.12500000  0.14626696  0.39626696  1
  F  F1  1  0.37500000  -0.14626696  0.89626696  1
  F  F2  1  0.87500000  0.64626696  0.10373304  1
  F  F3  1  0.62500000  0.35373304  0.60373304  1
  F  F4  1  0.39626696  0.12500000  0.14626696  1
  F  F5  1  0.89626696  0.37500000  -0.14626696  1
  F  F6  1  0.10373304  0.87500000  0.64626696  1
  F  F7  1  0.60373304  0.62500000  0.35373304  1
  F  F8  1  0.14626696  0.39626696  0.12500000  1
  F  F9  1  -0.14626696  0.89626696  0.37500000  1
  F  F10  1  0.64626696  0.10373304  0.87500000  1
  F  F11  1  0.35373304  0.60373304  0.62500000  1
  F  F12  1  0.62500000  0.64626696  0.89626696  1
  F  F13  1  0.87500000  0.35373304  1.39626696  1
  F  F14  1  1.37500000  1.14626696  0.60373304  1
  F  F15  1  1.12500000  0.85373304  1.10373304  1
  F  F16  1  0.89626696  0.62500000  0.64626696  1
  F  F17  1  1.39626696  0.87500000  0.35373304  1
  F  F18  1  0.60373304  1.37500000  1.14626696  1
  F  F19  1  1.10373304  1.12500000  0.85373304  1
  F  F20  1  0.64626696  0.89626696  0.62500000  1
  F  F21  1  0.35373304  1.39626696  0.87500000  1
  F  F22  1  1.14626696  0.60373304  1.37500000  1
  F  F23  1  0.85373304  1.10373304  1.12500000  1
  Li  Li24  1  0.87500000  0.87500000  0.87500000  1
  Li  Li25  1  0.62500000  0.12500000  0.37500000  1
  Li  Li26  1  0.12500000  0.37500000  0.62500000  1
  Li  Li27  1  0.37500000  0.62500000  0.12500000  1
  Li  Li28  1  0.37500000  0.37500000  0.37500000  1
  Li  Li29  1  0.12500000  0.62500000  0.87500000  1
  Li  Li30  1  0.62500000  0.87500000  0.12500000  1
  Li  Li31  1  0.87500000  0.12500000  0.62500000  1
  Li  Li32  1  0.03801888  0.03801888  0.03801888  1
  Li  Li33  1  0.46198112  0.96198112  0.53801888  1
  Li  Li34  1  0.96198112  0.53801888  0.46198112  1
  Li  Li35  1  0.53801888  0.46198112  0.96198112  1
  Li  Li36  1  0.78801888  0.28801888  0.21198112  1
  Li  Li37  1  0.71198112  0.71198112  0.71198112  1
  Li  Li38  1  0.28801888  0.21198112  0.78801888  1
  Li  Li39  1  0.21198112  0.78801888  0.28801888  1
  Li  Li40  1  0.53801888  0.53801888  0.53801888  1
  Li  Li41  1  0.96198112  0.46198112  0.03801888  1
  Li  Li42  1  0.46198112  0.03801888  0.96198112  1
  Li  Li43  1  0.03801888  0.96198112  0.46198112  1
  Li  Li44  1  0.28801888  0.78801888  0.71198112  1
  Li  Li45  1  0.21198112  0.21198112  0.21198112  1
  Li  Li46  1  0.78801888  0.71198112  0.28801888  1
  Li  Li47  1  0.71198112  0.28801888  0.78801888  1
