# generated using pymatgen
data_LiF
_symmetry_space_group_name_H-M   'P 1'
_cell_length_a   6.64124562
_cell_length_b   6.64124562
_cell_length_c   24.67850228
_cell_angle_alpha   90.00000000
_cell_angle_beta   90.00000000
_cell_angle_gamma   120.00000000
_symmetry_Int_Tables_number   1
_chemical_formula_structural   LiF
_chemical_formula_sum   'Li32 F32'
_cell_volume   942.64575459
_cell_formula_units_Z   32
loop_
 _symmetry_equiv_pos_site_id
 _symmetry_equiv_pos_as_xyz
  1  'x, y, z'
loop_
 _atom_site_type_symbol
 _atom_site_label
 _atom_site_symmetry_multiplicity
 _atom_site_fract_x
 _atom_site_fract_y
 _atom_site_fract_z
 _atom_site_occupancy
  F  F0  1  0.93495029  0.43823984  0.11489919  1
  F  F1  1  0.56176016  0.49671044  0.11489919  1
  F  F2  1  0.50328956  0.06504971  0.11489919  1
  F  F3  1  0.56176016  0.06504971  0.88510081  1
  F  F4  1  0.50328956  0.43823984  0.88510081  1
  F  F5  1  0.93495029  0.49671044  0.88510081  1
  F  F6  1  0.66666667  0.33333333  0.00000000  1
  F  F7  1  0.28410093  0.42140879  0.32166003  1
  F  F8  1  0.57859121  0.86269213  0.32166003  1
  F  F9  1  0.13730787  0.71589907  0.32166003  1
  F  F10  1  0.57859121  0.71589907  0.67833997  1
  F  F11  1  0.13730787  0.42140879  0.67833997  1
  F  F12  1  0.28410093  0.86269213  0.67833997  1
  F  F13  1  0.87802729  0.76439321  0.11017380  1
  F  F14  1  0.23560679  0.11363409  0.11017380  1
  F  F15  1  0.88636591  0.12197271  0.11017380  1
  F  F16  1  0.23560679  0.12197271  0.88982620  1
  F  F17  1  0.88636591  0.76439321  0.88982620  1
  F  F18  1  0.87802729  0.11363409  0.88982620  1
  F  F19  1  0.00000000  0.00000000  0.50000000  1
  F  F20  1  0.17887663  0.48682249  0.14496294  1
  F  F21  1  0.51317751  0.69205414  0.14496294  1
  F  F22  1  0.30794586  0.82112337  0.14496294  1
  F  F23  1  0.51317751  0.82112337  0.85503706  1
  F  F24  1  0.30794586  0.48682249  0.85503706  1
  F  F25  1  0.17887663  0.69205414  0.85503706  1
  F  F26  1  0.14506072  0.69179786  0.29387789  1
  F  F27  1  0.30820214  0.45326286  0.29387789  1
  F  F28  1  0.54673714  0.85493928  0.29387789  1
  F  F29  1  0.30820214  0.85493928  0.70612211  1
  F  F30  1  0.54673714  0.69179786  0.70612211  1
  F  F31  1  0.14506072  0.45326286  0.70612211  1
  Li  Li32  1  0.72450259  0.25320589  0.61226581  1
  Li  Li33  1  -0.25320589  0.47129670  0.61226581  1
  Li  Li34  1  -0.47129670  -0.72450259  0.61226581  1
  Li  Li35  1  -0.25320589  -0.72450259  -0.61226581  1
  Li  Li36  1  -0.47129670  0.25320589  -0.61226581  1
  Li  Li37  1  0.72450259  0.47129670  -0.61226581  1
  Li  Li38  1  0.81643501  0.38435352  0.29067952  1
  Li  Li39  1  0.61564648  0.43208150  0.29067952  1
  Li  Li40  1  0.56791850  0.18356499  0.29067952  1
  Li  Li41  1  0.61564648  0.18356499  0.70932048  1
  Li  Li42  1  0.56791850  0.38435352  0.70932048  1
  Li  Li43  1  0.81643501  0.43208150  0.70932048  1
  Li  Li44  1  0.99091257  0.78143738  0.28488719  1
  Li  Li45  1  0.21856262  0.20947520  0.28488719  1
  Li  Li46  1  0.79052480  0.00908743  0.28488719  1
  Li  Li47  1  0.21856262  0.00908743  0.71511281  1
  Li  Li48  1  0.79052480  0.78143738  0.71511281  1
  Li  Li49  1  0.99091257  0.20947520  0.71511281  1
  Li  Li50  1  0.33333333  0.66666667  0.78690477  1
  Li  Li51  1  0.33333333  0.66666667  0.21309523  1
  Li  Li52  1  0.33333333  0.66666667  0.85839016  1
  Li  Li53  1  0.33333333  0.66666667  0.14160984  1
  Li  Li54  1  0.27656785  0.44301354  0.07516895  1
  Li  Li55  1  0.55698646  0.83355431  0.07516895  1
  Li  Li56  1  0.16644569  0.72343215  0.07516895  1
  Li  Li57  1  0.55698646  0.72343215  0.92483105  1
  Li  Li58  1  0.16644569  0.44301354  0.92483105  1
  Li  Li59  1  0.27656785  0.83355431  0.92483105  1
  Li  Li60  1  0.33333333  0.66666667  0.00000000  1
  Li  Li61  1  0.47289585  0.52710415  0.00000000  1
  Li  Li62  1  0.47289585  0.94579169  0.00000000  1
  Li  Li63  1  0.05420831  0.52710415  0.00000000  1
