# generated using pymatgen
data_Li2Y2As2P3Se
_symmetry_space_group_name_H-M   'P 1'
_cell_length_a   5.65330460
_cell_length_b   5.73573499
_cell_length_c   7.26446766
_cell_angle_alpha   93.12155548
_cell_angle_beta   97.07781217
_cell_angle_gamma   102.87578553
_symmetry_Int_Tables_number   1
_chemical_formula_structural   Li2Y2As2P3Se
_chemical_formula_sum   'Li2 Y2 As2 P3 Se1'
_cell_volume   227.06543817
_cell_formula_units_Z   1
loop_
 _symmetry_equiv_pos_site_id
 _symmetry_equiv_pos_as_xyz
  1  'x, y, z'
loop_
 _atom_site_type_symbol
 _atom_site_label
 _atom_site_symmetry_multiplicity
 _atom_site_fract_x
 _atom_site_fract_y
 _atom_site_fract_z
 _atom_site_occupancy
  Se  Se0  1  0.00000000  0.00000000  0.00000000  1
  P  P1  1  0.50000000  0.50000000  0.50000000  1
  P  P2  1  0.25000000  0.25000000  0.25000000  1
  P  P3  1  0.75000000  0.25000000  0.00000000  1
  As  As4  1  0.25000000  0.75000000  0.50000000  1
  As  As5  1  0.78173692  0.06660890  0.89033344  1
  Li  Li6  1  0.60353864  0.36815760  0.29405792  1
  Li  Li7  1  0.41716061  0.46031556  0.66136719  1
  Y  Y8  1  0.54928900  0.16021630  0.03546954  1
  Y  Y9  1  0.81191740  0.66135868  0.92118366  1
