# generated using pymatgen
data_Li2Y2As4P3
_symmetry_space_group_name_H-M   'P 1'
_cell_length_a   4.87970021
_cell_length_b   5.08829700
_cell_length_c   6.93091717
_cell_angle_alpha   94.60231295
_cell_angle_beta   100.20113602
_cell_angle_gamma   108.70089496
_symmetry_Int_Tables_number   1
_chemical_formula_structural   Li2Y2As4P3
_chemical_formula_sum   'Li2 Y2 As4 P3'
_cell_volume   158.68559837
_cell_formula_units_Z   1
loop_
 _symmetry_equiv_pos_site_id
 _symmetry_equiv_pos_as_xyz
  1  'x, y, z'
loop_
 _atom_site_type_symbol
 _atom_site_label
 _atom_site_symmetry_multiplicity
 _atom_site_fract_x
 _atom_site_fract_y
 _atom_site_fract_z
 _atom_site_occupancy
  P  P0  1  0.00000000  0.00000000  0.00000000  1
  P  P1  1  0.50000000  0.50000000  0.50000000  1
  P  P2  1  0.50000000  0.50000000  0.00000000  1
  As  As3  1  0.50000000  0.00000000  0.50000000  1
  As  As4  1  0.00000000  0.50000000  0.50000000  1
  As  As5  1  0.52025099  0.67930201  0.20436309  1
  As  As6  1  0.34792542  0.11358491  0.02675607  1
  Li  Li7  1  0.31081365  0.21958104  0.83670922  1
  Li  Li8  1  0.62906602  0.05352018  0.54428813  1
  Y  Y9  1  0.54036525  0.62036420  0.22367257  1
  Y  Y10  1  0.15818789  0.74240228  0.88328366  1
