# generated using pymatgen
data_LiF
_symmetry_space_group_name_H-M   'P 1'
_cell_length_a   7.05049561
_cell_length_b   7.05049561
_cell_length_c   6.73896024
_cell_angle_alpha   90.00000000
_cell_angle_beta   90.00000000
_cell_angle_gamma   120.00000000
_symmetry_Int_Tables_number   1
_chemical_formula_structural   LiF
_chemical_formula_sum   'Li12 F12'
_cell_volume   290.11007952
_cell_formula_units_Z   12
loop_
 _symmetry_equiv_pos_site_id
 _symmetry_equiv_pos_as_xyz
  1  'x, y, z'
loop_
 _atom_site_type_symbol
 _atom_site_label
 _atom_site_symmetry_multiplicity
 _atom_site_fract_x
 _atom_site_fract_y
 _atom_site_fract_z
 _atom_site_occupancy
  F  F0  1  0.06298712  0.81834724  0.83769494  1
  F  F1  1  0.18165276  0.24463988  0.83769494  1
  F  F2  1  0.75536012  0.93701288  0.83769494  1
  F  F3  1  0.18165276  0.93701288  0.16230506  1
  F  F4  1  0.75536012  0.81834724  0.16230506  1
  F  F5  1  0.06298712  0.24463988  0.16230506  1
  F  F6  1  0.38343585  0.28409167  0.13859001  1
  F  F7  1  0.71590833  0.09934418  0.13859001  1
  F  F8  1  0.90065582  0.61656415  0.13859001  1
  F  F9  1  0.71590833  0.61656415  0.86140999  1
  F  F10  1  0.90065582  0.28409167  0.86140999  1
  F  F11  1  0.38343585  0.09934418  0.86140999  1
  Li  Li12  1  0.25865574  0.77316629  0.67579414  1
  Li  Li13  1  -0.77316629  -0.51451055  0.67579414  1
  Li  Li14  1  0.51451055  -0.25865574  0.67579414  1
  Li  Li15  1  -0.77316629  -0.25865574  -0.67579414  1
  Li  Li16  1  0.51451055  0.77316629  -0.67579414  1
  Li  Li17  1  0.25865574  -0.51451055  -0.67579414  1
  Li  Li18  1  0.39026309  0.32390211  0.33463214  1
  Li  Li19  1  0.67609789  0.06636098  0.33463214  1
  Li  Li20  1  0.93363902  0.60973691  0.33463214  1
  Li  Li21  1  0.67609789  0.60973691  0.66536786  1
  Li  Li22  1  0.93363902  0.32390211  0.66536786  1
  Li  Li23  1  0.39026309  0.06636098  0.66536786  1
