# generated using pymatgen
data_Li2YAs3P3Se
_symmetry_space_group_name_H-M   'P 1'
_cell_length_a   5.49449899
_cell_length_b   5.65702228
_cell_length_c   7.03640797
_cell_angle_alpha   93.36177990
_cell_angle_beta   97.55827230
_cell_angle_gamma   102.99875522
_symmetry_Int_Tables_number   1
_chemical_formula_structural   Li2YAs3P3Se
_chemical_formula_sum   'Li2 Y1 As3 P3 Se1'
_cell_volume   210.37010533
_cell_formula_units_Z   1
loop_
 _symmetry_equiv_pos_site_id
 _symmetry_equiv_pos_as_xyz
  1  'x, y, z'
loop_
 _atom_site_type_symbol
 _atom_site_label
 _atom_site_symmetry_multiplicity
 _atom_site_fract_x
 _atom_site_fract_y
 _atom_site_fract_z
 _atom_site_occupancy
  Se  Se0  1  0.00000000  0.00000000  0.00000000  1
  P  P1  1  0.50000000  0.50000000  0.50000000  1
  P  P2  1  0.50000000  0.50000000  0.00000000  1
  P  P3  1  0.50000000  0.00000000  0.50000000  1
  As  As4  1  0.00000000  0.50000000  0.50000000  1
  As  As5  1  0.58389235  0.79626599  0.76806370  1
  As  As6  1  0.32821462  0.66098252  0.85062126  1
  Li  Li7  1  0.71845209  0.96760687  0.06391147  1
  Li  Li8  1  0.85536013  0.51034530  0.71299723  1
  Y  Y9  1  0.70694796  0.67480604  0.44529613  1
