# generated using pymatgen
data_Li2Y2As4P3
_symmetry_space_group_name_H-M   'P 1'
_cell_length_a   4.61848565
_cell_length_b   4.84781290
_cell_length_c   6.78699712
_cell_angle_alpha   94.83915042
_cell_angle_beta   100.84709816
_cell_angle_gamma   109.80936108
_symmetry_Int_Tables_number   1
_chemical_formula_structural   Li2Y2As4P3
_chemical_formula_sum   'Li2 Y2 As4 P3'
_cell_volume   138.59529915
_cell_formula_units_Z   1
loop_
 _symmetry_equiv_pos_site_id
 _symmetry_equiv_pos_as_xyz
  1  'x, y, z'
loop_
 _atom_site_type_symbol
 _atom_site_label
 _atom_site_symmetry_multiplicity
 _atom_site_fract_x
 _atom_site_fract_y
 _atom_site_fract_z
 _atom_site_occupancy
  P  P0  1  0.00000000  0.00000000  0.00000000  1
  P  P1  1  0.33300000  0.66700000  0.25000000  1
  P  P2  1  0.66700000  0.33300000  0.50000000  1
  As  As3  1  0.00000000  0.00000000  0.75000000  1
  As  As4  1  0.05910327  0.99017745  0.53187062  1
  As  As5  1  0.16947348  0.18898139  0.72381479  1
  As  As6  1  0.40171356  0.20214597  0.29525157  1
  Li  Li7  1  0.72310174  0.91268516  0.73954828  1
  Li  Li8  1  0.76778706  0.87415646  0.00419431  1
  Y  Y9  1  0.25520060  0.09942514  0.13072243  1
  Y  Y10  1  0.97629863  0.79886870  0.21792945  1
