# generated using pymatgen
data_Li2YScTiF
_symmetry_space_group_name_H-M   'P 1'
_cell_length_a   3.26280976
_cell_length_b   3.10551846
_cell_length_c   5.83401670
_cell_angle_alpha   102.52573843
_cell_angle_beta   112.06680112
_cell_angle_gamma   114.32572188
_symmetry_Int_Tables_number   1
_chemical_formula_structural   Li2YScTiF
_chemical_formula_sum   'Li2 Y1 Sc1 Ti1 F1'
_cell_volume   44.82637115
_cell_formula_units_Z   1
loop_
 _symmetry_equiv_pos_site_id
 _symmetry_equiv_pos_as_xyz
  1  'x, y, z'
loop_
 _atom_site_type_symbol
 _atom_site_label
 _atom_site_symmetry_multiplicity
 _atom_site_fract_x
 _atom_site_fract_y
 _atom_site_fract_z
 _atom_site_occupancy
  F  F0  1  0.00000000  0.00000000  0.00000000  1
  Li  Li1  1  0.50000000  0.50000000  0.50000000  1
  Li  Li2  1  0.50000000  0.50000000  0.00000000  1
  Sc  Sc3  1  0.50000000  0.00000000  0.50000000  1
  Ti  Ti4  1  0.00000000  0.50000000  0.50000000  1
  Y  Y5  1  0.15751003  0.53221295  0.91983031  1
