# generated using pymatgen
data_LiCaF3
_symmetry_space_group_name_H-M   'P 1'
_cell_length_a   7.97699132
_cell_length_b   7.97699132
_cell_length_c   18.29464738
_cell_angle_alpha   90.00000000
_cell_angle_beta   90.00000000
_cell_angle_gamma   120.00000000
_symmetry_Int_Tables_number   1
_chemical_formula_structural   LiCaF3
_chemical_formula_sum   'Li18 Ca18 F54'
_cell_volume   1008.16801271
_cell_formula_units_Z   18
loop_
 _symmetry_equiv_pos_site_id
 _symmetry_equiv_pos_as_xyz
  1  'x, y, z'
loop_
 _atom_site_type_symbol
 _atom_site_label
 _atom_site_symmetry_multiplicity
 _atom_site_fract_x
 _atom_site_fract_y
 _atom_site_fract_z
 _atom_site_occupancy
  Ca  Ca0  1  0.60198858  0.63798642  0.26472249  1
  Ca  Ca1  1  -0.63798642  -0.03599783  0.26472249  1
  Ca  Ca2  1  0.03599783  -0.60198858  0.26472249  1
  Ca  Ca3  1  -0.63798642  -0.60198858  -0.26472249  1
  Ca  Ca4  1  0.03599783  0.63798642  -0.26472249  1
  Ca  Ca5  1  0.60198858  -0.03599783  -0.26472249  1
  Ca  Ca6  1  0.66666667  0.33333333  0.68691919  1
  Ca  Ca7  1  0.66666667  0.33333333  0.31308081  1
  Ca  Ca8  1  0.86732937  0.46590479  0.13368403  1
  Ca  Ca9  1  0.53409521  0.40142459  0.13368403  1
  Ca  Ca10  1  0.59857541  0.13267063  0.13368403  1
  Ca  Ca11  1  0.53409521  0.13267063  0.86631597  1
  Ca  Ca12  1  0.59857541  0.46590479  0.86631597  1
  Ca  Ca13  1  0.86732937  0.40142459  0.86631597  1
  Ca  Ca14  1  0.78307091  0.21692909  0.50000000  1
  Ca  Ca15  1  0.78307091  0.56614183  0.50000000  1
  Ca  Ca16  1  0.43385817  0.21692909  0.50000000  1
  Ca  Ca17  1  0.33333333  0.66666667  0.00000000  1
  F  F18  1  0.14334135  0.98377637  0.34941146  1
  F  F19  1  0.01622363  0.15956497  0.34941146  1
  F  F20  1  0.84043503  0.85665865  0.34941146  1
  F  F21  1  0.01622363  0.85665865  0.65058854  1
  F  F22  1  0.84043503  0.98377637  0.65058854  1
  F  F23  1  0.14334135  0.15956497  0.65058854  1
  F  F24  1  0.81594633  0.18405367  0.00000000  1
  F  F25  1  0.81594633  0.63189267  0.00000000  1
  F  F26  1  0.36810733  0.18405367  0.00000000  1
  F  F27  1  0.74850015  0.83810575  0.89194320  1
  F  F28  1  0.16189425  0.91039439  0.89194320  1
  F  F29  1  0.08960561  0.25149985  0.89194320  1
  F  F30  1  0.16189425  0.25149985  0.10805680  1
  F  F31  1  0.08960561  0.83810575  0.10805680  1
  F  F32  1  0.74850015  0.91039439  0.10805680  1
  F  F33  1  0.05230233  0.80379136  0.93981285  1
  F  F34  1  0.19620864  0.24851096  0.93981285  1
  F  F35  1  0.75148904  0.94769767  0.93981285  1
  F  F36  1  0.19620864  0.94769767  0.06018715  1
  F  F37  1  0.75148904  0.80379136  0.06018715  1
  F  F38  1  0.05230233  0.24851096  0.06018715  1
  F  F39  1  0.66666667  0.33333333  0.00000000  1
  F  F40  1  0.89268162  0.55300844  0.91085543  1
  F  F41  1  0.44699156  0.33967317  0.91085543  1
  F  F42  1  0.66032683  0.10731838  0.91085543  1
  F  F43  1  0.44699156  0.10731838  0.08914457  1
  F  F44  1  0.66032683  0.55300844  0.08914457  1
  F  F45  1  0.89268162  0.33967317  0.08914457  1
  F  F46  1  0.33333333  0.66666667  0.50000000  1
  F  F47  1  0.77981852  0.46968430  0.77458240  1
  F  F48  1  0.53031570  0.31013423  0.77458240  1
  F  F49  1  0.68986577  0.22018148  0.77458240  1
  F  F50  1  0.53031570  0.22018148  0.22541760  1
  F  F51  1  0.68986577  0.46968430  0.22541760  1
  F  F52  1  0.77981852  0.31013423  0.22541760  1
  F  F53  1  0.97848767  0.19551433  0.09239258  1
  F  F54  1  0.80448567  0.78297334  0.09239258  1
  F  F55  1  0.21702666  0.02151233  0.09239258  1
  F  F56  1  0.80448567  0.02151233  0.90760742  1
  F  F57  1  0.21702666  0.19551433  0.90760742  1
  F  F58  1  0.97848767  0.78297334  0.90760742  1
  F  F59  1  0.00000000  0.00000000  0.34364291  1
  F  F60  1  0.00000000  0.00000000  0.65635709  1
  F  F61  1  0.71474411  0.22281241  0.82208187  1
  F  F62  1  0.77718759  0.49193170  0.82208187  1
  F  F63  1  0.50806830  0.28525589  0.82208187  1
  F  F64  1  0.77718759  0.28525589  0.17791813  1
  F  F65  1  0.50806830  0.22281241  0.17791813  1
  F  F66  1  0.71474411  0.49193170  0.17791813  1
  F  F67  1  0.18580976  0.81419024  0.50000000  1
  F  F68  1  0.18580976  0.37161952  0.50000000  1
  F  F69  1  0.62838048  0.81419024  0.50000000  1
  F  F70  1  0.66666667  0.33333333  0.12621284  1
  F  F71  1  0.66666667  0.33333333  0.87378716  1
  Li  Li72  1  0.33333333  0.66666667  0.13832263  1
  Li  Li73  1  0.33333333  0.66666667  0.86167737  1
  Li  Li74  1  0.92140498  0.84503057  0.12061750  1
  Li  Li75  1  0.15496943  0.07637441  0.12061750  1
  Li  Li76  1  0.92362559  0.07859502  0.12061750  1
  Li  Li77  1  0.15496943  0.07859502  0.87938250  1
  Li  Li78  1  0.92362559  0.84503057  0.87938250  1
  Li  Li79  1  0.92140498  0.07637441  0.87938250  1
  Li  Li80  1  0.71598323  0.58625504  0.40013412  1
  Li  Li81  1  0.41374496  0.12972819  0.40013412  1
  Li  Li82  1  0.87027181  0.28401677  0.40013412  1
  Li  Li83  1  0.41374496  0.28401677  0.59986588  1
  Li  Li84  1  0.87027181  0.58625504  0.59986588  1
  Li  Li85  1  0.71598323  0.12972819  0.59986588  1
  Li  Li86  1  0.33333333  0.66666667  0.70568111  1
  Li  Li87  1  0.33333333  0.66666667  0.29431889  1
  Li  Li88  1  0.00000000  0.00000000  0.00000000  1
  Li  Li89  1  0.66666667  0.33333333  0.50000000  1
