# generated using pymatgen
data_LiF
_symmetry_space_group_name_H-M   'P 1'
_cell_length_a   7.01463587
_cell_length_b   7.01463587
_cell_length_c   4.10608494
_cell_angle_alpha   90.00000000
_cell_angle_beta   90.00000000
_cell_angle_gamma   120.00000000
_symmetry_Int_Tables_number   1
_chemical_formula_structural   LiF
_chemical_formula_sum   'Li7 F7'
_cell_volume   174.97210835
_cell_formula_units_Z   7
loop_
 _symmetry_equiv_pos_site_id
 _symmetry_equiv_pos_as_xyz
  1  'x, y, z'
loop_
 _atom_site_type_symbol
 _atom_site_label
 _atom_site_symmetry_multiplicity
 _atom_site_fract_x
 _atom_site_fract_y
 _atom_site_fract_z
 _atom_site_occupancy
  F  F0  1  0.71203451  0.87771714  0.50000000  1
  F  F1  1  -0.87771714  -0.16568263  0.50000000  1
  F  F2  1  0.16568263  -0.71203451  0.50000000  1
  F  F3  1  0.87771714  0.71203451  0.50000000  1
  F  F4  1  -0.16568263  -0.87771714  0.50000000  1
  F  F5  1  -0.71203451  0.16568263  0.50000000  1
  F  F6  1  0.00000000  0.00000000  0.50000000  1
  Li  Li7  1  0.18837941  0.00000000  0.50000000  1
  Li  Li8  1  0.00000000  0.18837941  0.50000000  1
  Li  Li9  1  0.81162059  0.81162059  0.50000000  1
  Li  Li10  1  0.33333333  0.66666667  0.00000000  1
  Li  Li11  1  0.66666667  0.33333333  0.00000000  1
  Li  Li12  1  0.00000000  0.00000000  0.17735625  1
  Li  Li13  1  0.00000000  0.00000000  0.82264375  1
