# generated using pymatgen
data_Li2TiSF
_symmetry_space_group_name_H-M   'P 1'
_cell_length_a   3.16637618
_cell_length_b   3.00247011
_cell_length_c   5.28736033
_cell_angle_alpha   100.33271156
_cell_angle_beta   102.80130915
_cell_angle_gamma   109.01200896
_symmetry_Int_Tables_number   1
_chemical_formula_structural   Li2TiSF
_chemical_formula_sum   'Li2 Ti1 S1 F1'
_cell_volume   44.58509624
_cell_formula_units_Z   1
loop_
 _symmetry_equiv_pos_site_id
 _symmetry_equiv_pos_as_xyz
  1  'x, y, z'
loop_
 _atom_site_type_symbol
 _atom_site_label
 _atom_site_symmetry_multiplicity
 _atom_site_fract_x
 _atom_site_fract_y
 _atom_site_fract_z
 _atom_site_occupancy
  F  F0  1  0.00000000  0.00000000  0.00000000  1
  Li  Li1  1  0.50000000  0.50000000  0.50000000  1
  Li  Li2  1  0.50000000  0.50000000  0.00000000  1
  S  S3  1  0.50000000  0.00000000  0.50000000  1
  Ti  Ti4  1  0.00000000  0.50000000  0.50000000  1
