# generated using pymatgen
data_LiF
_symmetry_space_group_name_H-M   'P 1'
_cell_length_a   7.87487974
_cell_length_b   8.69788899
_cell_length_c   8.10396142
_cell_angle_alpha   90.00000000
_cell_angle_beta   90.00000000
_cell_angle_gamma   90.00000000
_symmetry_Int_Tables_number   1
_chemical_formula_structural   LiF
_chemical_formula_sum   'Li30 F30'
_cell_volume   555.07945715
_cell_formula_units_Z   30
loop_
 _symmetry_equiv_pos_site_id
 _symmetry_equiv_pos_as_xyz
  1  'x, y, z'
loop_
 _atom_site_type_symbol
 _atom_site_label
 _atom_site_symmetry_multiplicity
 _atom_site_fract_x
 _atom_site_fract_y
 _atom_site_fract_z
 _atom_site_occupancy
  F  F0  1  0.61372281  0.79387584  -0.00000000  1
  F  F1  1  0.38627719  0.20612416  0.00000000  1
  F  F2  1  0.88627719  0.29387584  0.00000000  1
  F  F3  1  0.11372281  0.70612416  0.00000000  1
  F  F4  1  0.00000000  0.50000000  0.50000000  1
  F  F5  1  0.50000000  0.00000000  0.50000000  1
  F  F6  1  0.38791648  0.95723113  0.45929349  1
  F  F7  1  0.61208352  0.04276887  0.45929349  1
  F  F8  1  0.11208352  0.45723113  0.54070651  1
  F  F9  1  0.88791648  0.54276887  0.54070651  1
  F  F10  1  0.61208352  0.04276887  0.54070651  1
  F  F11  1  0.38791648  0.95723113  0.54070651  1
  F  F12  1  0.88791648  0.54276887  0.45929349  1
  F  F13  1  0.11208352  0.45723113  0.45929349  1
  F  F14  1  0.60776649  0.70326814  0.56402674  1
  F  F15  1  0.39223351  0.29673186  0.56402674  1
  F  F16  1  0.89223351  0.20326814  0.43597326  1
  F  F17  1  0.10776649  0.79673186  0.43597326  1
  F  F18  1  0.39223351  0.29673186  0.43597326  1
  F  F19  1  0.60776649  0.70326814  0.43597326  1
  F  F20  1  0.10776649  0.79673186  0.56402674  1
  F  F21  1  0.89223351  0.20326814  0.56402674  1
  F  F22  1  0.60062394  0.82266935  0.50000000  1
  F  F23  1  0.39937606  0.17733065  0.50000000  1
  F  F24  1  0.89937606  0.32266935  0.50000000  1
  F  F25  1  0.10062394  0.67733065  0.50000000  1
  F  F26  1  0.11302970  0.87839169  -0.00000000  1
  F  F27  1  0.88697030  0.12160831  0.00000000  1
  F  F28  1  0.38697030  0.37839169  -0.00000000  1
  F  F29  1  0.61302970  0.62160831  0.00000000  1
  Li  Li30  1  0.00000000  0.00000000  0.26463384  1
  Li  Li31  1  0.50000000  0.50000000  0.73536616  1
  Li  Li32  1  0.00000000  0.00000000  0.73536616  1
  Li  Li33  1  0.50000000  0.50000000  0.26463384  1
  Li  Li34  1  0.46039822  0.21450677  0.80138550  1
  Li  Li35  1  -0.46039822  -0.21450677  0.80138550  1
  Li  Li36  1  0.03960178  0.71450677  -0.80138550  1
  Li  Li37  1  0.96039822  0.28549323  -0.80138550  1
  Li  Li38  1  -0.46039822  -0.21450677  -0.80138550  1
  Li  Li39  1  0.46039822  0.21450677  -0.80138550  1
  Li  Li40  1  0.96039822  0.28549323  0.80138550  1
  Li  Li41  1  0.03960178  0.71450677  0.80138550  1
  Li  Li42  1  0.68308344  0.02052928  0.33458206  1
  Li  Li43  1  0.31691656  0.97947072  0.33458206  1
  Li  Li44  1  0.81691656  0.52052928  0.66541794  1
  Li  Li45  1  0.18308344  0.47947072  0.66541794  1
  Li  Li46  1  0.31691656  0.97947072  0.66541794  1
  Li  Li47  1  0.68308344  0.02052928  0.66541794  1
  Li  Li48  1  0.18308344  0.47947072  0.33458206  1
  Li  Li49  1  0.81691656  0.52052928  0.33458206  1
  Li  Li50  1  0.94609048  0.88744175  0.09414845  1
  Li  Li51  1  0.05390952  0.11255825  0.09414845  1
  Li  Li52  1  0.55390952  0.38744175  0.90585155  1
  Li  Li53  1  0.44609048  0.61255825  0.90585155  1
  Li  Li54  1  0.05390952  0.11255825  0.90585155  1
  Li  Li55  1  0.94609048  0.88744175  0.90585155  1
  Li  Li56  1  0.44609048  0.61255825  0.09414845  1
  Li  Li57  1  0.55390952  0.38744175  0.09414845  1
  Li  Li58  1  0.00000000  0.00000000  0.50000000  1
  Li  Li59  1  0.50000000  0.50000000  0.50000000  1
