# generated using pymatgen
data_LiY2As4P2Se
_symmetry_space_group_name_H-M   'P 1'
_cell_length_a   4.47195154
_cell_length_b   4.64139593
_cell_length_c   6.44278309
_cell_angle_alpha   95.59591184
_cell_angle_beta   100.75553032
_cell_angle_gamma   109.03146861
_symmetry_Int_Tables_number   1
_chemical_formula_structural   LiY2As4P2Se
_chemical_formula_sum   'Li1 Y2 As4 P2 Se1'
_cell_volume   122.37768912
_cell_formula_units_Z   1
loop_
 _symmetry_equiv_pos_site_id
 _symmetry_equiv_pos_as_xyz
  1  'x, y, z'
loop_
 _atom_site_type_symbol
 _atom_site_label
 _atom_site_symmetry_multiplicity
 _atom_site_fract_x
 _atom_site_fract_y
 _atom_site_fract_z
 _atom_site_occupancy
  Se  Se0  1  0.00000000  0.00000000  0.00000000  1
  Y  Y1  1  0.50000000  0.50000000  0.50000000  1
  Y  Y2  1  0.50000000  0.50000000  0.00000000  1
  P  P3  1  0.50000000  0.00000000  0.50000000  1
  P  P4  1  0.00000000  0.50000000  0.50000000  1
  As  As5  1  0.68371991  0.92516479  0.70323216  1
  As  As6  1  0.76499118  0.70573448  0.33044364  1
  As  As7  1  0.29528710  0.97473318  0.76875207  1
  As  As8  1  0.81925739  0.80633478  0.29266149  1
  Li  Li9  1  0.90629982  0.81317614  0.64941900  1
