# generated using pymatgen
data_LiF
_symmetry_space_group_name_H-M   'P 1'
_cell_length_a   6.96579951
_cell_length_b   6.96579951
_cell_length_c   13.80551836
_cell_angle_alpha   90.00000000
_cell_angle_beta   90.00000000
_cell_angle_gamma   120.00000000
_symmetry_Int_Tables_number   1
_chemical_formula_structural   LiF
_chemical_formula_sum   'Li21 F21'
_cell_volume   580.12995461
_cell_formula_units_Z   21
loop_
 _symmetry_equiv_pos_site_id
 _symmetry_equiv_pos_as_xyz
  1  'x, y, z'
loop_
 _atom_site_type_symbol
 _atom_site_label
 _atom_site_symmetry_multiplicity
 _atom_site_fract_x
 _atom_site_fract_y
 _atom_site_fract_z
 _atom_site_occupancy
  F  F0  1  0.41415827  0.16219622  0.79639529  1
  F  F1  1  0.83780378  0.25196205  0.79639529  1
  F  F2  1  0.74803795  0.58584173  0.79639529  1
  F  F3  1  0.41415827  0.16219622  0.20360471  1
  F  F4  1  0.83780378  0.25196205  0.20360471  1
  F  F5  1  0.74803795  0.58584173  0.20360471  1
  F  F6  1  0.16219622  0.41415827  0.20360471  1
  F  F7  1  0.25196205  0.83780378  0.20360471  1
  F  F8  1  0.58584173  0.74803795  0.20360471  1
  F  F9  1  0.16219622  0.41415827  0.79639529  1
  F  F10  1  0.25196205  0.83780378  0.79639529  1
  F  F11  1  0.58584173  0.74803795  0.79639529  1
  F  F12  1  0.00000000  0.00000000  0.50000000  1
  F  F13  1  0.74734309  0.00000000  0.30288967  1
  F  F14  1  0.00000000  0.74734309  0.30288967  1
  F  F15  1  0.25265691  0.25265691  0.30288967  1
  F  F16  1  0.74734309  0.00000000  0.69711033  1
  F  F17  1  0.00000000  0.74734309  0.69711033  1
  F  F18  1  0.25265691  0.25265691  0.69711033  1
  F  F19  1  0.33333333  0.66666667  0.50000000  1
  F  F20  1  0.66666667  0.33333333  0.50000000  1
  Li  Li21  1  0.33333333  0.66666667  0.00000000  1
  Li  Li22  1  0.66666667  0.33333333  0.00000000  1
  Li  Li23  1  0.33333333  0.66666667  0.33715616  1
  Li  Li24  1  0.33333333  0.66666667  0.66284384  1
  Li  Li25  1  0.66666667  0.33333333  0.66284384  1
  Li  Li26  1  0.66666667  0.33333333  0.33715616  1
  Li  Li27  1  0.15653772  0.73111248  0.45293050  1
  Li  Li28  1  -0.73111248  -0.57457476  0.45293050  1
  Li  Li29  1  0.57457476  -0.15653772  0.45293050  1
  Li  Li30  1  0.15653772  0.73111248  -0.45293050  1
  Li  Li31  1  -0.73111248  -0.57457476  -0.45293050  1
  Li  Li32  1  0.57457476  -0.15653772  -0.45293050  1
  Li  Li33  1  0.73111248  0.15653772  -0.45293050  1
  Li  Li34  1  -0.57457476  -0.73111248  -0.45293050  1
  Li  Li35  1  -0.15653772  0.57457476  -0.45293050  1
  Li  Li36  1  0.73111248  0.15653772  0.45293050  1
  Li  Li37  1  -0.57457476  -0.73111248  0.45293050  1
  Li  Li38  1  -0.15653772  0.57457476  0.45293050  1
  Li  Li39  1  0.10648796  -0.00000000  0.00000000  1
  Li  Li40  1  0.00000000  0.10648796  -0.00000000  1
  Li  Li41  1  0.89351204  0.89351204  0.00000000  1
