# generated using pymatgen
data_LiF
_symmetry_space_group_name_H-M   'P 1'
_cell_length_a   9.93219261
_cell_length_b   9.93219261
_cell_length_c   8.50781135
_cell_angle_alpha   90.00000000
_cell_angle_beta   90.00000000
_cell_angle_gamma   120.00000000
_symmetry_Int_Tables_number   1
_chemical_formula_structural   LiF
_chemical_formula_sum   'Li46 F46'
_cell_volume   726.83988157
_cell_formula_units_Z   46
loop_
 _symmetry_equiv_pos_site_id
 _symmetry_equiv_pos_as_xyz
  1  'x, y, z'
loop_
 _atom_site_type_symbol
 _atom_site_label
 _atom_site_symmetry_multiplicity
 _atom_site_fract_x
 _atom_site_fract_y
 _atom_site_fract_z
 _atom_site_occupancy
  F  F0  1  0.38883918  0.77961355  0.25557645  1
  F  F1  1  0.22038645  0.60922564  0.25557645  1
  F  F2  1  0.39077436  0.61116082  0.25557645  1
  F  F3  1  0.22038645  0.61116082  0.74442355  1
  F  F4  1  0.39077436  0.77961355  0.74442355  1
  F  F5  1  0.38883918  0.60922564  0.74442355  1
  F  F6  1  0.20036305  0.87104753  0.60089559  1
  F  F7  1  0.12895247  0.32931552  0.60089559  1
  F  F8  1  0.67068448  0.79963695  0.60089559  1
  F  F9  1  0.12895247  0.79963695  0.39910441  1
  F  F10  1  0.67068448  0.87104753  0.39910441  1
  F  F11  1  0.20036305  0.32931552  0.39910441  1
  F  F12  1  0.25009613  0.03093475  0.28497798  1
  F  F13  1  0.96906525  0.21916138  0.28497798  1
  F  F14  1  0.78083862  0.74990387  0.28497798  1
  F  F15  1  0.96906525  0.74990387  0.71502202  1
  F  F16  1  0.78083862  0.03093475  0.71502202  1
  F  F17  1  0.25009613  0.21916138  0.71502202  1
  F  F18  1  0.43030739  0.43151344  0.28816086  1
  F  F19  1  0.56848656  0.99879395  0.28816086  1
  F  F20  1  0.00120605  0.56969261  0.28816086  1
  F  F21  1  0.56848656  0.56969261  0.71183914  1
  F  F22  1  0.00120605  0.43151344  0.71183914  1
  F  F23  1  0.43030739  0.99879395  0.71183914  1
  F  F24  1  0.33333333  0.66666667  0.00000000  1
  F  F25  1  0.47845519  0.52154481  0.50000000  1
  F  F26  1  0.47845519  0.95691038  0.50000000  1
  F  F27  1  0.04308962  0.52154481  0.50000000  1
  F  F28  1  0.68338847  0.21680092  0.19199605  1
  F  F29  1  0.78319908  0.46658755  0.19199605  1
  F  F30  1  0.53341245  0.31661153  0.19199605  1
  F  F31  1  0.78319908  0.31661153  0.80800395  1
  F  F32  1  0.53341245  0.21680092  0.80800395  1
  F  F33  1  0.68338847  0.46658755  0.80800395  1
  F  F34  1  0.01429296  0.71278895  0.66157302  1
  F  F35  1  0.28721105  0.30150402  0.66157302  1
  F  F36  1  0.69849598  0.98570704  0.66157302  1
  F  F37  1  0.28721105  0.98570704  0.33842698  1
  F  F38  1  0.69849598  0.71278895  0.33842698  1
  F  F39  1  0.01429296  0.30150402  0.33842698  1
  F  F40  1  0.19795811  0.80079508  0.87531713  1
  F  F41  1  0.19920492  0.39716303  0.87531713  1
  F  F42  1  0.60283697  0.80204189  0.87531713  1
  F  F43  1  0.19920492  0.80204189  0.12468287  1
  F  F44  1  0.60283697  0.80079508  0.12468287  1
  F  F45  1  0.19795811  0.39716303  0.12468287  1
  Li  Li46  1  0.82049062  0.47668058  0.91041974  1
  Li  Li47  1  -0.47668058  0.34381004  0.91041974  1
  Li  Li48  1  -0.34381004  -0.82049062  0.91041974  1
  Li  Li49  1  -0.47668058  -0.82049062  -0.91041974  1
  Li  Li50  1  -0.34381004  0.47668058  -0.91041974  1
  Li  Li51  1  0.82049062  0.34381004  -0.91041974  1
  Li  Li52  1  0.66666667  0.33333333  0.83132783  1
  Li  Li53  1  0.66666667  0.33333333  0.16867217  1
  Li  Li54  1  0.06479096  0.65015626  0.80993965  1
  Li  Li55  1  0.34984374  0.41463470  0.80993965  1
  Li  Li56  1  0.58536530  0.93520904  0.80993965  1
  Li  Li57  1  0.34984374  0.93520904  0.19006035  1
  Li  Li58  1  0.58536530  0.65015626  0.19006035  1
  Li  Li59  1  0.06479096  0.41463470  0.19006035  1
  Li  Li60  1  0.33775162  0.10585742  0.94478658  1
  Li  Li61  1  0.89414258  0.23189420  0.94478658  1
  Li  Li62  1  0.76810580  0.66224838  0.94478658  1
  Li  Li63  1  0.89414258  0.66224838  0.05521342  1
  Li  Li64  1  0.76810580  0.10585742  0.05521342  1
  Li  Li65  1  0.33775162  0.23189420  0.05521342  1
  Li  Li66  1  0.00000000  0.00000000  0.50000000  1
  Li  Li67  1  0.18745910  0.81254090  0.00000000  1
  Li  Li68  1  0.18745910  0.37491821  0.00000000  1
  Li  Li69  1  0.62508179  0.81254090  0.00000000  1
  Li  Li70  1  0.66666667  0.33333333  0.62579606  1
  Li  Li71  1  0.66666667  0.33333333  0.37420394  1
  Li  Li72  1  0.96221400  0.63001558  0.56632178  1
  Li  Li73  1  0.36998442  0.33219841  0.56632178  1
  Li  Li74  1  0.66780159  0.03778600  0.56632178  1
  Li  Li75  1  0.36998442  0.03778600  0.43367822  1
  Li  Li76  1  0.66780159  0.63001558  0.43367822  1
  Li  Li77  1  0.96221400  0.33219841  0.43367822  1
  Li  Li78  1  0.10787352  0.89212648  0.50000000  1
  Li  Li79  1  0.10787352  0.21574704  0.50000000  1
  Li  Li80  1  0.78425296  0.89212648  0.50000000  1
  Li  Li81  1  0.23212986  0.15227856  0.87072937  1
  Li  Li82  1  0.84772144  0.07985130  0.87072937  1
  Li  Li83  1  0.92014870  0.76787014  0.87072937  1
  Li  Li84  1  0.84772144  0.76787014  0.12927063  1
  Li  Li85  1  0.92014870  0.15227856  0.12927063  1
  Li  Li86  1  0.23212986  0.07985130  0.12927063  1
  Li  Li87  1  0.87361019  0.12638981  0.50000000  1
  Li  Li88  1  0.87361019  0.74722038  0.50000000  1
  Li  Li89  1  0.25277962  0.12638981  0.50000000  1
  Li  Li90  1  0.33333333  0.66666667  0.74256780  1
  Li  Li91  1  0.33333333  0.66666667  0.25743220  1
