# generated using pymatgen
data_LiF
_symmetry_space_group_name_H-M   'P 1'
_cell_length_a   12.01757416
_cell_length_b   12.01757416
_cell_length_c   10.81252998
_cell_angle_alpha   90.00000000
_cell_angle_beta   90.00000000
_cell_angle_gamma   120.00000000
_symmetry_Int_Tables_number   1
_chemical_formula_structural   LiF
_chemical_formula_sum   'Li42 F42'
_cell_volume   1352.35769931
_cell_formula_units_Z   42
loop_
 _symmetry_equiv_pos_site_id
 _symmetry_equiv_pos_as_xyz
  1  'x, y, z'
loop_
 _atom_site_type_symbol
 _atom_site_label
 _atom_site_symmetry_multiplicity
 _atom_site_fract_x
 _atom_site_fract_y
 _atom_site_fract_z
 _atom_site_occupancy
  F  F0  1  0.79610449  0.04646440  0.14593262  1
  F  F1  1  0.95353560  0.74964010  0.14593262  1
  F  F2  1  0.25035990  0.20389551  0.14593262  1
  F  F3  1  0.95353560  0.20389551  0.85406738  1
  F  F4  1  0.25035990  0.04646440  0.85406738  1
  F  F5  1  0.79610449  0.74964010  0.85406738  1
  F  F6  1  0.33333333  0.66666667  0.50000000  1
  F  F7  1  0.33333333  0.66666667  0.68216242  1
  F  F8  1  0.33333333  0.66666667  0.31783758  1
  F  F9  1  0.67698531  0.39691917  0.67921325  1
  F  F10  1  0.60308083  0.28006614  0.67921325  1
  F  F11  1  0.71993386  0.32301469  0.67921325  1
  F  F12  1  0.60308083  0.32301469  0.32078675  1
  F  F13  1  0.71993386  0.39691917  0.32078675  1
  F  F14  1  0.67698531  0.28006614  0.32078675  1
  F  F15  1  0.69357025  0.70145356  0.15202592  1
  F  F16  1  0.29854644  0.99211669  0.15202592  1
  F  F17  1  0.00788331  0.30642975  0.15202592  1
  F  F18  1  0.29854644  0.30642975  0.84797408  1
  F  F19  1  0.00788331  0.70145356  0.84797408  1
  F  F20  1  0.69357025  0.99211669  0.84797408  1
  F  F21  1  0.10267086  0.44048675  0.25413350  1
  F  F22  1  0.55951325  0.66218411  0.25413350  1
  F  F23  1  0.33781589  0.89732914  0.25413350  1
  F  F24  1  0.55951325  0.89732914  0.74586650  1
  F  F25  1  0.33781589  0.44048675  0.74586650  1
  F  F26  1  0.10267086  0.66218411  0.74586650  1
  F  F27  1  0.00000000  0.00000000  0.88896292  1
  F  F28  1  0.00000000  0.00000000  0.11103708  1
  F  F29  1  0.07810215  0.53496005  0.81192013  1
  F  F30  1  0.46503995  0.54314210  0.81192013  1
  F  F31  1  0.45685790  0.92189785  0.81192013  1
  F  F32  1  0.46503995  0.92189785  0.18807987  1
  F  F33  1  0.45685790  0.53496005  0.18807987  1
  F  F34  1  0.07810215  0.54314210  0.18807987  1
  F  F35  1  0.66666667  0.33333333  0.78277772  1
  F  F36  1  0.66666667  0.33333333  0.21722228  1
  F  F37  1  0.00000000  0.00000000  0.50000000  1
  F  F38  1  0.06905317  0.93094683  0.00000000  1
  F  F39  1  0.06905317  0.13810633  0.00000000  1
  F  F40  1  0.86189367  0.93094683  -0.00000000  1
  F  F41  1  0.00000000  0.00000000  0.00000000  1
  Li  Li42  1  0.66666667  0.33333333  0.00000000  1
  Li  Li43  1  0.22502462  0.77497538  -0.00000000  1
  Li  Li44  1  0.22502462  0.45004923  0.00000000  1
  Li  Li45  1  0.54995077  0.77497538  -0.00000000  1
  Li  Li46  1  0.07520636  0.32023576  0.93284394  1
  Li  Li47  1  -0.32023576  -0.24502940  0.93284394  1
  Li  Li48  1  0.24502940  -0.07520636  0.93284394  1
  Li  Li49  1  -0.32023576  -0.07520636  -0.93284394  1
  Li  Li50  1  0.24502940  0.32023576  -0.93284394  1
  Li  Li51  1  0.07520636  -0.24502940  -0.93284394  1
  Li  Li52  1  0.87642759  0.21033803  0.04486706  1
  Li  Li53  1  0.78966197  0.66608956  0.04486706  1
  Li  Li54  1  0.33391044  0.12357241  0.04486706  1
  Li  Li55  1  0.78966197  0.12357241  0.95513294  1
  Li  Li56  1  0.33391044  0.21033803  0.95513294  1
  Li  Li57  1  0.87642759  0.66608956  0.95513294  1
  Li  Li58  1  0.04103997  0.69656325  0.69833368  1
  Li  Li59  1  0.30343675  0.34447672  0.69833368  1
  Li  Li60  1  0.65552328  0.95896003  0.69833368  1
  Li  Li61  1  0.30343675  0.95896003  0.30166632  1
  Li  Li62  1  0.65552328  0.69656325  0.30166632  1
  Li  Li63  1  0.04103997  0.34447672  0.30166632  1
  Li  Li64  1  0.61802132  0.21059433  0.18129714  1
  Li  Li65  1  0.78940567  0.40742699  0.18129714  1
  Li  Li66  1  0.59257301  0.38197868  0.18129714  1
  Li  Li67  1  0.78940567  0.38197868  0.81870286  1
  Li  Li68  1  0.59257301  0.21059433  0.81870286  1
  Li  Li69  1  0.61802132  0.40742699  0.81870286  1
  Li  Li70  1  0.23029694  0.02545529  0.71876756  1
  Li  Li71  1  0.97454471  0.20484166  0.71876756  1
  Li  Li72  1  0.79515834  0.76970306  0.71876756  1
  Li  Li73  1  0.97454471  0.76970306  0.28123244  1
  Li  Li74  1  0.79515834  0.02545529  0.28123244  1
  Li  Li75  1  0.23029694  0.20484166  0.28123244  1
  Li  Li76  1  0.80275891  0.91628807  0.66187513  1
  Li  Li77  1  0.08371193  0.88647083  0.66187513  1
  Li  Li78  1  0.11352917  0.19724109  0.66187513  1
  Li  Li79  1  0.08371193  0.19724109  0.33812487  1
  Li  Li80  1  0.11352917  0.91628807  0.33812487  1
  Li  Li81  1  0.80275891  0.88647083  0.33812487  1
  Li  Li82  1  0.33333333  0.66666667  0.07499226  1
  Li  Li83  1  0.33333333  0.66666667  0.92500774  1
