# generated using pymatgen
data_Li2Ca3F8
_symmetry_space_group_name_H-M   'P 1'
_cell_length_a   7.94286016
_cell_length_b   7.94286016
_cell_length_c   19.86009015
_cell_angle_alpha   90.00000000
_cell_angle_beta   90.00000000
_cell_angle_gamma   120.00000000
_symmetry_Int_Tables_number   1
_chemical_formula_structural   Li2Ca3F8
_chemical_formula_sum   'Li16 Ca24 F64'
_cell_volume   1085.08979750
_cell_formula_units_Z   8
loop_
 _symmetry_equiv_pos_site_id
 _symmetry_equiv_pos_as_xyz
  1  'x, y, z'
loop_
 _atom_site_type_symbol
 _atom_site_label
 _atom_site_symmetry_multiplicity
 _atom_site_fract_x
 _atom_site_fract_y
 _atom_site_fract_z
 _atom_site_occupancy
  Ca  Ca0  1  0.61126270  0.00000000  0.39643679  1
  Ca  Ca1  1  0.00000000  0.61126270  0.39643679  1
  Ca  Ca2  1  0.38873730  0.38873730  0.39643679  1
  Ca  Ca3  1  0.61126270  0.00000000  0.60356321  1
  Ca  Ca4  1  0.00000000  0.61126270  0.60356321  1
  Ca  Ca5  1  0.38873730  0.38873730  0.60356321  1
  Ca  Ca6  1  0.54291569  0.76822528  0.78435939  1
  Ca  Ca7  1  0.23177472  0.77469042  0.78435939  1
  Ca  Ca8  1  0.22530958  0.45708431  0.78435939  1
  Ca  Ca9  1  0.54291569  0.76822528  0.21564061  1
  Ca  Ca10  1  0.23177472  0.77469042  0.21564061  1
  Ca  Ca11  1  0.22530958  0.45708431  0.21564061  1
  Ca  Ca12  1  0.76822528  0.54291569  0.21564061  1
  Ca  Ca13  1  0.77469042  0.23177472  0.21564061  1
  Ca  Ca14  1  0.45708431  0.22530958  0.21564061  1
  Ca  Ca15  1  0.76822528  0.54291569  0.78435939  1
  Ca  Ca16  1  0.77469042  0.23177472  0.78435939  1
  Ca  Ca17  1  0.45708431  0.22530958  0.78435939  1
  Ca  Ca18  1  0.55700126  0.00000000  0.50000000  1
  Ca  Ca19  1  0.00000000  0.55700126  0.50000000  1
  Ca  Ca20  1  0.44299874  0.44299874  0.50000000  1
  Ca  Ca21  1  0.71857025  0.00000000  0.00000000  1
  Ca  Ca22  1  0.00000000  0.71857025  0.00000000  1
  Ca  Ca23  1  0.28142975  0.28142975  0.00000000  1
  F  F24  1  0.33333333  0.66666667  0.50000000  1
  F  F25  1  0.66666667  0.33333333  0.50000000  1
  F  F26  1  0.32488451  0.00000000  -0.00000000  1
  F  F27  1  0.00000000  0.32488451  0.00000000  1
  F  F28  1  0.67511549  0.67511549  -0.00000000  1
  F  F29  1  0.36006259  0.14849812  0.27320559  1
  F  F30  1  -0.14849812  0.21156447  0.27320559  1
  F  F31  1  -0.21156447  -0.36006259  0.27320559  1
  F  F32  1  0.36006259  0.14849812  -0.27320559  1
  F  F33  1  -0.14849812  0.21156447  -0.27320559  1
  F  F34  1  -0.21156447  -0.36006259  -0.27320559  1
  F  F35  1  0.14849812  0.36006259  -0.27320559  1
  F  F36  1  0.21156447  -0.14849812  -0.27320559  1
  F  F37  1  -0.36006259  -0.21156447  -0.27320559  1
  F  F38  1  0.14849812  0.36006259  0.27320559  1
  F  F39  1  0.21156447  -0.14849812  0.27320559  1
  F  F40  1  -0.36006259  -0.21156447  0.27320559  1
  F  F41  1  0.61658678  0.93186409  0.93587236  1
  F  F42  1  0.06813591  0.68472268  0.93587236  1
  F  F43  1  0.31527732  0.38341322  0.93587236  1
  F  F44  1  0.61658678  0.93186409  0.06412764  1
  F  F45  1  0.06813591  0.68472268  0.06412764  1
  F  F46  1  0.31527732  0.38341322  0.06412764  1
  F  F47  1  0.93186409  0.61658678  0.06412764  1
  F  F48  1  0.68472268  0.06813591  0.06412764  1
  F  F49  1  0.38341322  0.31527732  0.06412764  1
  F  F50  1  0.93186409  0.61658678  0.93587236  1
  F  F51  1  0.68472268  0.06813591  0.93587236  1
  F  F52  1  0.38341322  0.31527732  0.93587236  1
  F  F53  1  0.40029022  0.83590324  0.91340778  1
  F  F54  1  0.16409676  0.56438698  0.91340778  1
  F  F55  1  0.43561302  0.59970978  0.91340778  1
  F  F56  1  0.40029022  0.83590324  0.08659222  1
  F  F57  1  0.16409676  0.56438698  0.08659222  1
  F  F58  1  0.43561302  0.59970978  0.08659222  1
  F  F59  1  0.83590324  0.40029022  0.08659222  1
  F  F60  1  0.56438698  0.16409676  0.08659222  1
  F  F61  1  0.59970978  0.43561302  0.08659222  1
  F  F62  1  0.83590324  0.40029022  0.91340778  1
  F  F63  1  0.56438698  0.16409676  0.91340778  1
  F  F64  1  0.59970978  0.43561302  0.91340778  1
  F  F65  1  0.00000000  0.00000000  0.50000000  1
  F  F66  1  0.41675747  0.00000000  0.20263471  1
  F  F67  1  0.00000000  0.41675747  0.20263471  1
  F  F68  1  0.58324253  0.58324253  0.20263471  1
  F  F69  1  0.41675747  0.00000000  0.79736529  1
  F  F70  1  0.00000000  0.41675747  0.79736529  1
  F  F71  1  0.58324253  0.58324253  0.79736529  1
  F  F72  1  0.39642455  0.71190231  0.67092683  1
  F  F73  1  0.28809769  0.68452224  0.67092683  1
  F  F74  1  0.31547776  0.60357545  0.67092683  1
  F  F75  1  0.39642455  0.71190231  0.32907317  1
  F  F76  1  0.28809769  0.68452224  0.32907317  1
  F  F77  1  0.31547776  0.60357545  0.32907317  1
  F  F78  1  0.71190231  0.39642455  0.32907317  1
  F  F79  1  0.68452224  0.28809769  0.32907317  1
  F  F80  1  0.60357545  0.31547776  0.32907317  1
  F  F81  1  0.71190231  0.39642455  0.67092683  1
  F  F82  1  0.68452224  0.28809769  0.67092683  1
  F  F83  1  0.60357545  0.31547776  0.67092683  1
  F  F84  1  0.33333333  0.66666667  0.44687077  1
  F  F85  1  0.33333333  0.66666667  0.55312923  1
  F  F86  1  0.66666667  0.33333333  0.55312923  1
  F  F87  1  0.66666667  0.33333333  0.44687077  1
  Li  Li88  1  0.00000000  0.00000000  0.56356714  1
  Li  Li89  1  0.00000000  0.00000000  0.43643286  1
  Li  Li90  1  0.33333333  0.66666667  0.81520911  1
  Li  Li91  1  0.33333333  0.66666667  0.18479089  1
  Li  Li92  1  0.66666667  0.33333333  0.18479089  1
  Li  Li93  1  0.66666667  0.33333333  0.81520911  1
  Li  Li94  1  0.21801370  -0.00000000  0.86181793  1
  Li  Li95  1  0.00000000  0.21801370  0.86181793  1
  Li  Li96  1  0.78198630  0.78198630  0.86181793  1
  Li  Li97  1  0.21801370  -0.00000000  0.13818207  1
  Li  Li98  1  0.00000000  0.21801370  0.13818207  1
  Li  Li99  1  0.78198630  0.78198630  0.13818207  1
  Li  Li100  1  0.33333333  0.66666667  0.38636710  1
  Li  Li101  1  0.33333333  0.66666667  0.61363290  1
  Li  Li102  1  0.66666667  0.33333333  0.61363290  1
  Li  Li103  1  0.66666667  0.33333333  0.38636710  1
