# generated using pymatgen
data_Li4TeF2
_symmetry_space_group_name_H-M   'P 1'
_cell_length_a   15.70418761
_cell_length_b   15.70418761
_cell_length_c   14.91463256
_cell_angle_alpha   90.00000000
_cell_angle_beta   90.00000000
_cell_angle_gamma   120.00000000
_symmetry_Int_Tables_number   1
_chemical_formula_structural   Li4TeF2
_chemical_formula_sum   'Li96 Te24 F48'
_cell_volume   3185.47455231
_cell_formula_units_Z   24
loop_
 _symmetry_equiv_pos_site_id
 _symmetry_equiv_pos_as_xyz
  1  'x, y, z'
loop_
 _atom_site_type_symbol
 _atom_site_label
 _atom_site_symmetry_multiplicity
 _atom_site_fract_x
 _atom_site_fract_y
 _atom_site_fract_z
 _atom_site_occupancy
  F  F0  1  0.19657114  0.08529926  0.30895807  1
  F  F1  1  -0.08529926  0.11127188  0.30895807  1
  F  F2  1  -0.11127188  -0.19657114  0.30895807  1
  F  F3  1  -0.08529926  -0.19657114  -0.30895807  1
  F  F4  1  -0.11127188  0.08529926  -0.30895807  1
  F  F5  1  0.19657114  0.11127188  -0.30895807  1
  F  F6  1  0.66666667  0.33333333  -0.00000000  1
  F  F7  1  0.33333333  0.66666667  -0.00000000  1
  F  F8  1  0.66666667  0.33333333  0.32910247  1
  F  F9  1  0.66666667  0.33333333  0.67089753  1
  F  F10  1  0.36801503  0.37400032  0.13628451  1
  F  F11  1  0.62599968  0.99401471  0.13628451  1
  F  F12  1  0.00598529  0.63198497  0.13628451  1
  F  F13  1  0.62599968  0.63198497  0.86371549  1
  F  F14  1  0.00598529  0.37400032  0.86371549  1
  F  F15  1  0.36801503  0.99401471  0.86371549  1
  F  F16  1  0.93307988  0.03667644  0.11286207  1
  F  F17  1  0.96332356  0.89640345  0.11286207  1
  F  F18  1  0.10359655  0.06692012  0.11286207  1
  F  F19  1  0.96332356  0.06692012  0.88713793  1
  F  F20  1  0.10359655  0.03667644  0.88713793  1
  F  F21  1  0.93307988  0.89640345  0.88713793  1
  F  F22  1  0.49580494  0.15456756  0.72554767  1
  F  F23  1  0.84543244  0.34123738  0.72554767  1
  F  F24  1  0.65876262  0.50419506  0.72554767  1
  F  F25  1  0.84543244  0.50419506  0.27445233  1
  F  F26  1  0.65876262  0.15456756  0.27445233  1
  F  F27  1  0.49580494  0.34123738  0.27445233  1
  F  F28  1  0.50572933  0.37627838  0.86083661  1
  F  F29  1  0.62372162  0.12945096  0.86083661  1
  F  F30  1  0.87054904  0.49427067  0.86083661  1
  F  F31  1  0.62372162  0.49427067  0.13916339  1
  F  F32  1  0.87054904  0.37627838  0.13916339  1
  F  F33  1  0.50572933  0.12945096  0.13916339  1
  F  F34  1  0.68654906  0.89935805  0.74304596  1
  F  F35  1  0.10064195  0.78719101  0.74304596  1
  F  F36  1  0.21280899  0.31345094  0.74304596  1
  F  F37  1  0.10064195  0.31345094  0.25695404  1
  F  F38  1  0.21280899  0.89935805  0.25695404  1
  F  F39  1  0.68654906  0.78719101  0.25695404  1
  F  F40  1  0.49587915  0.67980241  0.83435504  1
  F  F41  1  0.32019759  0.81607674  0.83435504  1
  F  F42  1  0.18392326  0.50412085  0.83435504  1
  F  F43  1  0.32019759  0.50412085  0.16564496  1
  F  F44  1  0.18392326  0.67980241  0.16564496  1
  F  F45  1  0.49587915  0.81607674  0.16564496  1
  F  F46  1  0.66666667  0.33333333  0.74832304  1
  F  F47  1  0.66666667  0.33333333  0.25167696  1
  Li  Li48  1  0.66666667  0.33333333  0.50000000  1
  Li  Li49  1  0.00000000  0.00000000  0.50000000  1
  Li  Li50  1  0.94575329  0.30809755  0.24749815  1
  Li  Li51  1  0.69190245  0.63765574  0.24749815  1
  Li  Li52  1  0.36234426  0.05424671  0.24749815  1
  Li  Li53  1  0.69190245  0.05424671  0.75250185  1
  Li  Li54  1  0.36234426  0.30809755  0.75250185  1
  Li  Li55  1  0.94575329  0.63765574  0.75250185  1
  Li  Li56  1  0.10716350  0.02375228  0.05869392  1
  Li  Li57  1  0.97624772  0.08341122  0.05869392  1
  Li  Li58  1  0.91658878  0.89283650  0.05869392  1
  Li  Li59  1  0.97624772  0.89283650  0.94130608  1
  Li  Li60  1  0.91658878  0.02375228  0.94130608  1
  Li  Li61  1  0.10716350  0.08341122  0.94130608  1
  Li  Li62  1  0.52564044  0.66469447  0.01030758  1
  Li  Li63  1  0.33530553  0.86094596  0.01030758  1
  Li  Li64  1  0.13905404  0.47435956  0.01030758  1
  Li  Li65  1  0.33530553  0.47435956  0.98969242  1
  Li  Li66  1  0.13905404  0.66469447  0.98969242  1
  Li  Li67  1  0.52564044  0.86094596  0.98969242  1
  Li  Li68  1  0.99958279  0.14658400  0.83060133  1
  Li  Li69  1  0.85341600  0.85299879  0.83060133  1
  Li  Li70  1  0.14700121  0.00041721  0.83060133  1
  Li  Li71  1  0.85341600  0.00041721  0.16939867  1
  Li  Li72  1  0.14700121  0.14658400  0.16939867  1
  Li  Li73  1  0.99958279  0.85299879  0.16939867  1
  Li  Li74  1  0.49737553  0.78136783  0.78861744  1
  Li  Li75  1  0.21863217  0.71600770  0.78861744  1
  Li  Li76  1  0.28399230  0.50262447  0.78861744  1
  Li  Li77  1  0.21863217  0.50262447  0.21138256  1
  Li  Li78  1  0.28399230  0.78136783  0.21138256  1
  Li  Li79  1  0.49737553  0.71600770  0.21138256  1
  Li  Li80  1  0.00000000  0.00000000  0.00000000  1
  Li  Li81  1  0.37495653  0.72742258  0.41662755  1
  Li  Li82  1  0.27257742  0.64753395  0.41662755  1
  Li  Li83  1  0.35246605  0.62504347  0.41662755  1
  Li  Li84  1  0.27257742  0.62504347  0.58337245  1
  Li  Li85  1  0.35246605  0.72742258  0.58337245  1
  Li  Li86  1  0.37495653  0.64753395  0.58337245  1
  Li  Li87  1  0.22019118  0.85524498  0.36134136  1
  Li  Li88  1  0.14475502  0.36494620  0.36134136  1
  Li  Li89  1  0.63505380  0.77980882  0.36134136  1
  Li  Li90  1  0.14475502  0.77980882  0.63865864  1
  Li  Li91  1  0.63505380  0.85524498  0.63865864  1
  Li  Li92  1  0.22019118  0.36494620  0.63865864  1
  Li  Li93  1  0.25455297  0.74544703  -0.00000000  1
  Li  Li94  1  0.25455297  0.50910594  -0.00000000  1
  Li  Li95  1  0.49089406  0.74544703  -0.00000000  1
  Li  Li96  1  0.24407835  0.93674851  0.65593211  1
  Li  Li97  1  0.06325149  0.30732984  0.65593211  1
  Li  Li98  1  0.69267016  0.75592165  0.65593211  1
  Li  Li99  1  0.06325149  0.75592165  0.34406789  1
  Li  Li100  1  0.69267016  0.93674851  0.34406789  1
  Li  Li101  1  0.24407835  0.30732984  0.34406789  1
  Li  Li102  1  0.10755818  0.89244182  0.50000000  1
  Li  Li103  1  0.10755818  0.21511637  0.50000000  1
  Li  Li104  1  0.78488363  0.89244182  0.50000000  1
  Li  Li105  1  0.77005054  0.68560402  0.32073746  1
  Li  Li106  1  0.31439598  0.08444653  0.32073746  1
  Li  Li107  1  0.91555347  0.22994946  0.32073746  1
  Li  Li108  1  0.31439598  0.22994946  0.67926254  1
  Li  Li109  1  0.91555347  0.68560402  0.67926254  1
  Li  Li110  1  0.77005054  0.08444653  0.67926254  1
  Li  Li111  1  0.54896371  0.22571727  0.85564385  1
  Li  Li112  1  0.77428273  0.32324643  0.85564385  1
  Li  Li113  1  0.67675357  0.45103629  0.85564385  1
  Li  Li114  1  0.77428273  0.45103629  0.14435615  1
  Li  Li115  1  0.67675357  0.22571727  0.14435615  1
  Li  Li116  1  0.54896371  0.32324643  0.14435615  1
  Li  Li117  1  0.54002998  0.45997002  -0.00000000  1
  Li  Li118  1  0.54002998  0.08005996  -0.00000000  1
  Li  Li119  1  0.91994004  0.45997002  -0.00000000  1
  Li  Li120  1  0.22133956  0.98806843  0.15563914  1
  Li  Li121  1  0.01193157  0.23327113  0.15563914  1
  Li  Li122  1  0.76672887  0.77866044  0.15563914  1
  Li  Li123  1  0.01193157  0.77866044  0.84436086  1
  Li  Li124  1  0.76672887  0.98806843  0.84436086  1
  Li  Li125  1  0.22133956  0.23327113  0.84436086  1
  Li  Li126  1  0.56543727  0.48170981  0.23089356  1
  Li  Li127  1  0.51829019  0.08372746  0.23089356  1
  Li  Li128  1  0.91627254  0.43456273  0.23089356  1
  Li  Li129  1  0.51829019  0.43456273  0.76910644  1
  Li  Li130  1  0.91627254  0.48170981  0.76910644  1
  Li  Li131  1  0.56543727  0.08372746  0.76910644  1
  Li  Li132  1  0.33767716  0.48909803  0.52362398  1
  Li  Li133  1  0.51090197  0.84857913  0.52362398  1
  Li  Li134  1  0.15142087  0.66232284  0.52362398  1
  Li  Li135  1  0.51090197  0.66232284  0.47637602  1
  Li  Li136  1  0.15142087  0.48909803  0.47637602  1
  Li  Li137  1  0.33767716  0.84857913  0.47637602  1
  Li  Li138  1  0.95154857  0.22060633  0.64400075  1
  Li  Li139  1  0.77939367  0.73094224  0.64400075  1
  Li  Li140  1  0.26905776  0.04845143  0.64400075  1
  Li  Li141  1  0.77939367  0.04845143  0.35599925  1
  Li  Li142  1  0.26905776  0.22060633  0.35599925  1
  Li  Li143  1  0.95154857  0.73094224  0.35599925  1
  Te  Te144  1  0.13368520  0.49279491  0.35574473  1
  Te  Te145  1  0.50720509  0.64089029  0.35574473  1
  Te  Te146  1  0.35910971  0.86631480  0.35574473  1
  Te  Te147  1  0.50720509  0.86631480  0.64425527  1
  Te  Te148  1  0.35910971  0.49279491  0.64425527  1
  Te  Te149  1  0.13368520  0.64089029  0.64425527  1
  Te  Te150  1  0.82649903  0.22391024  0.22934607  1
  Te  Te151  1  0.77608976  0.60258879  0.22934607  1
  Te  Te152  1  0.39741121  0.17350097  0.22934607  1
  Te  Te153  1  0.77608976  0.17350097  0.77065393  1
  Te  Te154  1  0.39741121  0.22391024  0.77065393  1
  Te  Te155  1  0.82649903  0.60258879  0.77065393  1
  Te  Te156  1  0.26778623  0.40480133  0.41364457  1
  Te  Te157  1  0.59519867  0.86298490  0.41364457  1
  Te  Te158  1  0.13701510  0.73221377  0.41364457  1
  Te  Te159  1  0.59519867  0.73221377  0.58635543  1
  Te  Te160  1  0.13701510  0.40480133  0.58635543  1
  Te  Te161  1  0.26778623  0.86298490  0.58635543  1
  Te  Te162  1  0.33333333  0.66666667  0.50000000  1
  Te  Te163  1  0.85358961  0.14641039  0.50000000  1
  Te  Te164  1  0.85358961  0.70717922  0.50000000  1
  Te  Te165  1  0.29282078  0.14641039  0.50000000  1
  Te  Te166  1  0.33333333  0.66666667  0.90998837  1
  Te  Te167  1  0.33333333  0.66666667  0.09001163  1
