# generated using pymatgen
data_Li2Al2As2P3F6
_symmetry_space_group_name_H-M   'P 1'
_cell_length_a   6.33696098
_cell_length_b   5.95819761
_cell_length_c   7.71117568
_cell_angle_alpha   92.46353170
_cell_angle_beta   95.36505987
_cell_angle_gamma   99.89502771
_symmetry_Int_Tables_number   1
_chemical_formula_structural   Li2Al2As2P3F6
_chemical_formula_sum   'Li2 Al2 As2 P3 F6'
_cell_volume   285.04422009
_cell_formula_units_Z   1
loop_
 _symmetry_equiv_pos_site_id
 _symmetry_equiv_pos_as_xyz
  1  'x, y, z'
loop_
 _atom_site_type_symbol
 _atom_site_label
 _atom_site_symmetry_multiplicity
 _atom_site_fract_x
 _atom_site_fract_y
 _atom_site_fract_z
 _atom_site_occupancy
  Al  Al0  1  0.12500000  0.00000000  0.25000000  1
  Al  Al1  1  0.00000000  0.00000000  0.00000000  1
  F  F2  1  0.37500000  0.00000000  0.25000000  1
  F  F3  1  0.25000000  0.25000000  0.25000000  1
  F  F4  1  0.00000000  0.25000000  0.12500000  1
  F  F5  1  0.65802314  0.04182710  0.98009188  1
  F  F6  1  0.23001227  0.24726789  0.75835239  1
  F  F7  1  0.09915828  0.20913759  0.42257695  1
  P  P8  1  0.88357835  0.07169903  0.09591786  1
  P  P9  1  0.67579012  0.38233918  0.21082648  1
  P  P10  1  0.70401167  0.51583233  0.30366072  1
  As  As11  1  0.24624705  0.38558477  0.72909174  1
  As  As12  1  0.66043338  0.78359537  0.16192092  1
  Li  Li13  1  0.12570336  0.52120793  0.72578372  1
  Li  Li14  1  0.45637318  0.21776571  0.37771141  1
