# generated using pymatgen
data_LiF
_symmetry_space_group_name_H-M   'P 1'
_cell_length_a   13.46982036
_cell_length_b   13.46982036
_cell_length_c   2.39533719
_cell_angle_alpha   90.00000000
_cell_angle_beta   90.00000000
_cell_angle_gamma   120.00000000
_symmetry_Int_Tables_number   1
_chemical_formula_structural   LiF
_chemical_formula_sum   'Li13 F13'
_cell_volume   376.37511138
_cell_formula_units_Z   13
loop_
 _symmetry_equiv_pos_site_id
 _symmetry_equiv_pos_as_xyz
  1  'x, y, z'
loop_
 _atom_site_type_symbol
 _atom_site_label
 _atom_site_symmetry_multiplicity
 _atom_site_fract_x
 _atom_site_fract_y
 _atom_site_fract_z
 _atom_site_occupancy
  F  F0  1  0.61118296  0.14494981  0.68380187  1
  F  F1  1  -0.14494981  0.46623315  0.68380187  1
  F  F2  1  -0.46623315  -0.61118296  0.68380187  1
  F  F3  1  0.61118296  0.14494981  -0.68380187  1
  F  F4  1  -0.14494981  0.46623315  -0.68380187  1
  F  F5  1  -0.46623315  -0.61118296  -0.68380187  1
  F  F6  1  0.14494981  0.61118296  -0.68380187  1
  F  F7  1  0.46623315  -0.14494981  -0.68380187  1
  F  F8  1  -0.61118296  -0.46623315  -0.68380187  1
  F  F9  1  0.14494981  0.61118296  0.68380187  1
  F  F10  1  0.46623315  -0.14494981  0.68380187  1
  F  F11  1  -0.61118296  -0.46623315  0.68380187  1
  F  F12  1  0.00000000  0.00000000  0.00000000  1
  Li  Li13  1  0.83967176  0.92569516  0.50000000  1
  Li  Li14  1  0.07430484  0.91397660  0.50000000  1
  Li  Li15  1  0.08602340  0.16032824  0.50000000  1
  Li  Li16  1  0.92569516  0.83967176  0.50000000  1
  Li  Li17  1  0.91397660  0.07430484  0.50000000  1
  Li  Li18  1  0.16032824  0.08602340  0.50000000  1
  Li  Li19  1  0.58639125  0.26138400  0.00000000  1
  Li  Li20  1  0.73861600  0.32500725  0.00000000  1
  Li  Li21  1  0.67499275  0.41360875  0.00000000  1
  Li  Li22  1  0.26138400  0.58639125  0.00000000  1
  Li  Li23  1  0.32500725  0.73861600  0.00000000  1
  Li  Li24  1  0.41360875  0.67499275  -0.00000000  1
  Li  Li25  1  0.00000000  0.00000000  0.50000000  1
