# generated using pymatgen
data_Li2Ca3F8
_symmetry_space_group_name_H-M   'P 1'
_cell_length_a   13.91821204
_cell_length_b   13.91821204
_cell_length_c   12.06319786
_cell_angle_alpha   90.00000000
_cell_angle_beta   90.00000000
_cell_angle_gamma   120.00000000
_symmetry_Int_Tables_number   1
_chemical_formula_structural   Li2Ca3F8
_chemical_formula_sum   'Li16 Ca24 F64'
_cell_volume   2023.76453075
_cell_formula_units_Z   8
loop_
 _symmetry_equiv_pos_site_id
 _symmetry_equiv_pos_as_xyz
  1  'x, y, z'
loop_
 _atom_site_type_symbol
 _atom_site_label
 _atom_site_symmetry_multiplicity
 _atom_site_fract_x
 _atom_site_fract_y
 _atom_site_fract_z
 _atom_site_occupancy
  Ca  Ca0  1  0.24041240  0.70109065  0.19356506  1
  Ca  Ca1  1  0.29890935  0.53932175  0.19356506  1
  Ca  Ca2  1  0.46067825  0.75958760  0.19356506  1
  Ca  Ca3  1  0.29890935  0.75958760  0.80643494  1
  Ca  Ca4  1  0.46067825  0.70109065  0.80643494  1
  Ca  Ca5  1  0.24041240  0.53932175  0.80643494  1
  Ca  Ca6  1  0.87700201  0.40955232  0.09473168  1
  Ca  Ca7  1  0.59044768  0.46744969  0.09473168  1
  Ca  Ca8  1  0.53255031  0.12299799  0.09473168  1
  Ca  Ca9  1  0.59044768  0.12299799  0.90526832  1
  Ca  Ca10  1  0.53255031  0.40955232  0.90526832  1
  Ca  Ca11  1  0.87700201  0.46744969  0.90526832  1
  Ca  Ca12  1  0.79267994  0.59895319  0.23683843  1
  Ca  Ca13  1  0.40104681  0.19372675  0.23683843  1
  Ca  Ca14  1  0.80627325  0.20732006  0.23683843  1
  Ca  Ca15  1  0.40104681  0.20732006  0.76316157  1
  Ca  Ca16  1  0.80627325  0.59895319  0.76316157  1
  Ca  Ca17  1  0.79267994  0.19372675  0.76316157  1
  Ca  Ca18  1  0.94611309  0.25757239  0.46441568  1
  Ca  Ca19  1  0.74242761  0.68854070  0.46441568  1
  Ca  Ca20  1  0.31145930  0.05388691  0.46441568  1
  Ca  Ca21  1  0.74242761  0.05388691  0.53558432  1
  Ca  Ca22  1  0.31145930  0.25757239  0.53558432  1
  Ca  Ca23  1  0.94611309  0.68854070  0.53558432  1
  F  F24  1  0.89897051  0.47758789  0.42188835  1
  F  F25  1  -0.47758789  0.42138262  0.42188835  1
  F  F26  1  -0.42138262  -0.89897051  0.42188835  1
  F  F27  1  -0.47758789  -0.89897051  -0.42188835  1
  F  F28  1  -0.42138262  0.47758789  -0.42188835  1
  F  F29  1  0.89897051  0.42138262  -0.42188835  1
  F  F30  1  0.33333333  0.66666667  0.50000000  1
  F  F31  1  0.97518310  0.17921688  0.26475806  1
  F  F32  1  0.82078312  0.79596622  0.26475806  1
  F  F33  1  0.20403378  0.02481690  0.26475806  1
  F  F34  1  0.82078312  0.02481690  0.73524194  1
  F  F35  1  0.20403378  0.17921688  0.73524194  1
  F  F36  1  0.97518310  0.79596622  0.73524194  1
  F  F37  1  0.97538358  0.56238600  0.84013544  1
  F  F38  1  0.43761400  0.41299759  0.84013544  1
  F  F39  1  0.58700241  0.02461642  0.84013544  1
  F  F40  1  0.43761400  0.02461642  0.15986456  1
  F  F41  1  0.58700241  0.56238600  0.15986456  1
  F  F42  1  0.97538358  0.41299759  0.15986456  1
  F  F43  1  0.00000000  0.00000000  0.53293602  1
  F  F44  1  0.00000000  0.00000000  0.46706398  1
  F  F45  1  0.68157413  0.92271147  0.67164126  1
  F  F46  1  0.07728853  0.75886266  0.67164126  1
  F  F47  1  0.24113734  0.31842587  0.67164126  1
  F  F48  1  0.07728853  0.31842587  0.32835874  1
  F  F49  1  0.24113734  0.92271147  0.32835874  1
  F  F50  1  0.68157413  0.75886266  0.32835874  1
  F  F51  1  0.00000000  0.00000000  0.00000000  1
  F  F52  1  0.59848455  0.10534203  0.14610257  1
  F  F53  1  0.89465797  0.49314252  0.14610257  1
  F  F54  1  0.50685748  0.40151545  0.14610257  1
  F  F55  1  0.89465797  0.40151545  0.85389743  1
  F  F56  1  0.50685748  0.10534203  0.85389743  1
  F  F57  1  0.59848455  0.49314252  0.85389743  1
  F  F58  1  0.66666667  0.33333333  0.50000000  1
  F  F59  1  0.00617361  0.11522324  0.65733064  1
  F  F60  1  0.88477676  0.89095038  0.65733064  1
  F  F61  1  0.10904962  0.99382639  0.65733064  1
  F  F62  1  0.88477676  0.99382639  0.34266936  1
  F  F63  1  0.10904962  0.11522324  0.34266936  1
  F  F64  1  0.00617361  0.89095038  0.34266936  1
  F  F65  1  0.33333333  0.66666667  0.00000000  1
  F  F66  1  0.54038192  0.63527402  0.87415434  1
  F  F67  1  0.36472598  0.90510790  0.87415434  1
  F  F68  1  0.09489210  0.45961808  0.87415434  1
  F  F69  1  0.36472598  0.45961808  0.12584566  1
  F  F70  1  0.09489210  0.63527402  0.12584566  1
  F  F71  1  0.54038192  0.90510790  0.12584566  1
  F  F72  1  0.63038514  0.73407635  0.81252386  1
  F  F73  1  0.26592365  0.89630878  0.81252386  1
  F  F74  1  0.10369122  0.36961486  0.81252386  1
  F  F75  1  0.26592365  0.36961486  0.18747614  1
  F  F76  1  0.10369122  0.73407635  0.18747614  1
  F  F77  1  0.63038514  0.89630878  0.18747614  1
  F  F78  1  0.89645494  0.53831294  0.19473527  1
  F  F79  1  0.46168706  0.35814199  0.19473527  1
  F  F80  1  0.64185801  0.10354506  0.19473527  1
  F  F81  1  0.46168706  0.10354506  0.80526473  1
  F  F82  1  0.64185801  0.53831294  0.80526473  1
  F  F83  1  0.89645494  0.35814199  0.80526473  1
  F  F84  1  0.80136694  0.19863306  0.50000000  1
  F  F85  1  0.80136694  0.60273389  0.50000000  1
  F  F86  1  0.39726611  0.19863306  0.50000000  1
  F  F87  1  0.66666667  0.33333333  0.00000000  1
  Li  Li88  1  0.22373616  0.81239097  0.44873167  1
  Li  Li89  1  0.18760903  0.41134519  0.44873167  1
  Li  Li90  1  0.58865481  0.77626384  0.44873167  1
  Li  Li91  1  0.18760903  0.77626384  0.55126833  1
  Li  Li92  1  0.58865481  0.81239097  0.55126833  1
  Li  Li93  1  0.22373616  0.41134519  0.55126833  1
  Li  Li94  1  0.33333333  0.66666667  0.36232476  1
  Li  Li95  1  0.33333333  0.66666667  0.63767524  1
  Li  Li96  1  0.54733722  0.00655730  0.96593576  1
  Li  Li97  1  0.99344270  0.54077991  0.96593576  1
  Li  Li98  1  0.45922009  0.45266278  0.96593576  1
  Li  Li99  1  0.99344270  0.45266278  0.03406424  1
  Li  Li100  1  0.45922009  0.00655730  0.03406424  1
  Li  Li101  1  0.54733722  0.54077991  0.03406424  1
  Li  Li102  1  0.33333333  0.66666667  0.92101843  1
  Li  Li103  1  0.33333333  0.66666667  0.07898157  1
