# generated using pymatgen
data_Li3Y2Al(AsP)2
_symmetry_space_group_name_H-M   'P 1'
_cell_length_a   5.44080447
_cell_length_b   5.64460839
_cell_length_c   6.80584394
_cell_angle_alpha   93.89722829
_cell_angle_beta   96.86679393
_cell_angle_gamma   97.77822523
_symmetry_Int_Tables_number   1
_chemical_formula_structural   Li3Y2Al(AsP)2
_chemical_formula_sum   'Li3 Y2 Al1 As2 P2'
_cell_volume   204.85344472
_cell_formula_units_Z   1
loop_
 _symmetry_equiv_pos_site_id
 _symmetry_equiv_pos_as_xyz
  1  'x, y, z'
loop_
 _atom_site_type_symbol
 _atom_site_label
 _atom_site_symmetry_multiplicity
 _atom_site_fract_x
 _atom_site_fract_y
 _atom_site_fract_z
 _atom_site_occupancy
  Al  Al0  1  0.12500000  0.00000000  0.25000000  1
  P  P1  1  0.00000000  0.00000000  0.00000000  1
  P  P2  1  0.37500000  0.00000000  0.25000000  1
  As  As3  1  0.25000000  0.25000000  0.25000000  1
  As  As4  1  0.00000000  0.25000000  0.12500000  1
  Li  Li5  1  0.68974107  0.59368264  0.84840152  1
  Li  Li6  1  0.69432372  0.27498140  0.12961875  1
  Li  Li7  1  0.74240283  0.84084242  0.15025974  1
  Y  Y8  1  0.16089663  0.77804244  0.49930747  1
  Y  Y9  1  0.87996032  0.76491360  0.01118530  1
