# generated using pymatgen
data_LiF
_symmetry_space_group_name_H-M   'P 1'
_cell_length_a   9.29327631
_cell_length_b   5.89137573
_cell_length_c   9.52416344
_cell_angle_alpha   90.00000000
_cell_angle_beta   90.00000000
_cell_angle_gamma   90.00000000
_symmetry_Int_Tables_number   1
_chemical_formula_structural   LiF
_chemical_formula_sum   'Li26 F26'
_cell_volume   521.44968627
_cell_formula_units_Z   26
loop_
 _symmetry_equiv_pos_site_id
 _symmetry_equiv_pos_as_xyz
  1  'x, y, z'
loop_
 _atom_site_type_symbol
 _atom_site_label
 _atom_site_symmetry_multiplicity
 _atom_site_fract_x
 _atom_site_fract_y
 _atom_site_fract_z
 _atom_site_occupancy
  F  F0  1  0.15022391  0.87581047  0.00000000  1
  F  F1  1  0.84977609  0.12418953  -0.00000000  1
  F  F2  1  0.34977609  0.37581047  0.00000000  1
  F  F3  1  0.65022391  0.62418953  -0.00000000  1
  F  F4  1  0.82583177  0.94729264  0.13966095  1
  F  F5  1  0.17416823  0.05270736  0.13966095  1
  F  F6  1  0.67416823  0.44729264  0.86033905  1
  F  F7  1  0.32583177  0.55270736  0.86033905  1
  F  F8  1  0.17416823  0.05270736  0.86033905  1
  F  F9  1  0.82583177  0.94729264  0.86033905  1
  F  F10  1  0.32583177  0.55270736  0.13966095  1
  F  F11  1  0.67416823  0.44729264  0.13966095  1
  F  F12  1  0.60646265  0.00979458  0.28673854  1
  F  F13  1  0.39353735  0.99020542  0.28673854  1
  F  F14  1  0.89353735  0.50979458  0.71326146  1
  F  F15  1  0.10646265  0.49020542  0.71326146  1
  F  F16  1  0.39353735  0.99020542  0.71326146  1
  F  F17  1  0.60646265  0.00979458  0.71326146  1
  F  F18  1  0.10646265  0.49020542  0.28673854  1
  F  F19  1  0.89353735  0.50979458  0.28673854  1
  F  F20  1  0.00000000  0.50000000  0.86800479  1
  F  F21  1  0.50000000  0.00000000  0.13199521  1
  F  F22  1  0.00000000  0.50000000  0.13199521  1
  F  F23  1  0.50000000  0.00000000  0.86800479  1
  F  F24  1  0.00000000  0.00000000  0.50000000  1
  F  F25  1  0.50000000  0.50000000  0.50000000  1
  Li  Li26  1  0.94716373  0.87873663  0.85121348  1
  Li  Li27  1  -0.94716373  -0.87873663  0.85121348  1
  Li  Li28  1  -0.44716373  1.37873663  -0.85121348  1
  Li  Li29  1  1.44716373  -0.37873663  -0.85121348  1
  Li  Li30  1  -0.94716373  -0.87873663  -0.85121348  1
  Li  Li31  1  0.94716373  0.87873663  -0.85121348  1
  Li  Li32  1  1.44716373  -0.37873663  0.85121348  1
  Li  Li33  1  -0.44716373  1.37873663  0.85121348  1
  Li  Li34  1  0.55300149  0.57421078  -0.00000000  1
  Li  Li35  1  0.44699851  0.42578922  0.00000000  1
  Li  Li36  1  0.94699851  0.07421078  -0.00000000  1
  Li  Li37  1  0.05300149  0.92578922  -0.00000000  1
  Li  Li38  1  0.89904516  0.76223747  0.00000000  1
  Li  Li39  1  0.10095484  0.23776253  0.00000000  1
  Li  Li40  1  0.60095484  0.26223747  0.00000000  1
  Li  Li41  1  0.39904516  0.73776253  -0.00000000  1
  Li  Li42  1  0.81161115  0.97299041  -0.00000000  1
  Li  Li43  1  0.18838885  0.02700959  -0.00000000  1
  Li  Li44  1  0.68838885  0.47299041  -0.00000000  1
  Li  Li45  1  0.31161115  0.52700959  -0.00000000  1
  Li  Li46  1  0.63145492  0.91537582  -0.00000000  1
  Li  Li47  1  0.36854508  0.08462418  -0.00000000  1
  Li  Li48  1  0.86854508  0.41537582  -0.00000000  1
  Li  Li49  1  0.13145492  0.58462418  0.00000000  1
  Li  Li50  1  0.00000000  0.50000000  0.50000000  1
  Li  Li51  1  0.50000000  0.00000000  0.50000000  1
