# generated using pymatgen
data_LiF
_symmetry_space_group_name_H-M   'P 1'
_cell_length_a   5.02585722
_cell_length_b   7.08816409
_cell_length_c   8.27344236
_cell_angle_alpha   90.00000000
_cell_angle_beta   90.00000000
_cell_angle_gamma   90.00000000
_symmetry_Int_Tables_number   1
_chemical_formula_structural   LiF
_chemical_formula_sum   'Li14 F14'
_cell_volume   294.73394345
_cell_formula_units_Z   14
loop_
 _symmetry_equiv_pos_site_id
 _symmetry_equiv_pos_as_xyz
  1  'x, y, z'
loop_
 _atom_site_type_symbol
 _atom_site_label
 _atom_site_symmetry_multiplicity
 _atom_site_fract_x
 _atom_site_fract_y
 _atom_site_fract_z
 _atom_site_occupancy
  F  F0  1  0.92825996  0.16031665  0.08092380  1
  F  F1  1  0.07174004  0.83968335  0.08092380  1
  F  F2  1  0.57174004  0.66031665  0.91907620  1
  F  F3  1  0.42825996  0.33968335  0.91907620  1
  F  F4  1  0.07174004  0.83968335  0.91907620  1
  F  F5  1  0.92825996  0.16031665  0.91907620  1
  F  F6  1  0.42825996  0.33968335  0.08092380  1
  F  F7  1  0.57174004  0.66031665  0.08092380  1
  F  F8  1  0.08094089  0.34738350  0.50000000  1
  F  F9  1  0.91905911  0.65261650  0.50000000  1
  F  F10  1  0.41905911  0.84738350  0.50000000  1
  F  F11  1  0.58094089  0.15261650  0.50000000  1
  F  F12  1  0.00000000  0.00000000  0.50000000  1
  F  F13  1  0.50000000  0.50000000  0.50000000  1
  Li  Li14  1  0.65041045  0.78527020  0.08591757  1
  Li  Li15  1  -0.65041045  -0.78527020  0.08591757  1
  Li  Li16  1  -0.15041045  1.28527020  -0.08591757  1
  Li  Li17  1  1.15041045  -0.28527020  -0.08591757  1
  Li  Li18  1  -0.65041045  -0.78527020  -0.08591757  1
  Li  Li19  1  0.65041045  0.78527020  -0.08591757  1
  Li  Li20  1  1.15041045  -0.28527020  0.08591757  1
  Li  Li21  1  -0.15041045  1.28527020  0.08591757  1
  Li  Li22  1  0.14131662  0.63989697  0.50000000  1
  Li  Li23  1  0.85868338  0.36010303  0.50000000  1
  Li  Li24  1  0.35868338  0.13989697  0.50000000  1
  Li  Li25  1  0.64131662  0.86010303  0.50000000  1
  Li  Li26  1  0.00000000  0.00000000  0.00000000  1
  Li  Li27  1  0.50000000  0.50000000  0.00000000  1
