# generated using pymatgen
data_Li4TeF2
_symmetry_space_group_name_H-M   'P 1'
_cell_length_a   14.61017987
_cell_length_b   14.61017987
_cell_length_c   14.61017987
_cell_angle_alpha   90.00000000
_cell_angle_beta   90.00000000
_cell_angle_gamma   90.00000000
_symmetry_Int_Tables_number   1
_chemical_formula_structural   Li4TeF2
_chemical_formula_sum   'Li96 Te24 F48'
_cell_volume   3118.65036215
_cell_formula_units_Z   24
loop_
 _symmetry_equiv_pos_site_id
 _symmetry_equiv_pos_as_xyz
  1  'x, y, z'
loop_
 _atom_site_type_symbol
 _atom_site_label
 _atom_site_symmetry_multiplicity
 _atom_site_fract_x
 _atom_site_fract_y
 _atom_site_fract_z
 _atom_site_occupancy
  F  F0  1  0.62500000  0.00000000  0.25000000  1
  F  F1  1  0.87500000  0.00000000  0.75000000  1
  F  F2  1  0.25000000  0.62500000  0.00000000  1
  F  F3  1  0.75000000  0.87500000  0.00000000  1
  F  F4  1  0.00000000  0.25000000  0.62500000  1
  F  F5  1  0.00000000  0.75000000  0.87500000  1
  F  F6  1  0.12500000  0.50000000  0.75000000  1
  F  F7  1  0.37500000  0.50000000  0.25000000  1
  F  F8  1  0.75000000  0.12500000  0.50000000  1
  F  F9  1  0.25000000  0.37500000  0.50000000  1
  F  F10  1  0.50000000  0.75000000  0.12500000  1
  F  F11  1  0.50000000  0.25000000  0.37500000  1
  F  F12  1  0.12500000  0.00000000  0.25000000  1
  F  F13  1  0.37500000  0.00000000  0.75000000  1
  F  F14  1  0.25000000  0.12500000  -0.00000000  1
  F  F15  1  0.75000000  0.37500000  0.00000000  1
  F  F16  1  0.00000000  0.25000000  0.12500000  1
  F  F17  1  0.00000000  0.75000000  0.37500000  1
  F  F18  1  0.62500000  0.50000000  0.75000000  1
  F  F19  1  0.87500000  0.50000000  0.25000000  1
  F  F20  1  0.75000000  0.62500000  0.50000000  1
  F  F21  1  0.25000000  0.87500000  0.50000000  1
  F  F22  1  0.50000000  0.75000000  0.62500000  1
  F  F23  1  0.50000000  0.25000000  0.87500000  1
  F  F24  1  0.12500000  0.85457959  0.39542041  1
  F  F25  1  0.37500000  0.14542041  0.89542041  1
  F  F26  1  0.87500000  0.35457959  0.10457959  1
  F  F27  1  0.62500000  0.64542041  0.60457959  1
  F  F28  1  0.39542041  0.12500000  0.85457959  1
  F  F29  1  0.89542041  0.37500000  0.14542041  1
  F  F30  1  0.10457959  0.87500000  0.35457959  1
  F  F31  1  0.60457959  0.62500000  0.64542041  1
  F  F32  1  0.85457959  0.39542041  0.12500000  1
  F  F33  1  0.14542041  0.89542041  0.37500000  1
  F  F34  1  0.35457959  0.10457959  0.87500000  1
  F  F35  1  0.64542041  0.60457959  0.62500000  1
  F  F36  1  0.62500000  0.35457959  0.89542041  1
  F  F37  1  0.87500000  0.64542041  0.39542041  1
  F  F38  1  0.37500000  0.85457959  0.60457959  1
  F  F39  1  0.12500000  0.14542041  0.10457959  1
  F  F40  1  0.89542041  0.62500000  0.35457959  1
  F  F41  1  0.39542041  0.87500000  0.64542041  1
  F  F42  1  0.60457959  0.37500000  0.85457959  1
  F  F43  1  0.10457959  0.12500000  0.14542041  1
  F  F44  1  0.35457959  0.89542041  0.62500000  1
  F  F45  1  0.64542041  0.39542041  0.87500000  1
  F  F46  1  0.85457959  0.60457959  0.37500000  1
  F  F47  1  0.14542041  0.10457959  0.12500000  1
  Li  Li48  1  0.21823499  0.30720686  0.38280793  1
  Li  Li49  1  0.28176501  -0.30720686  0.88280793  1
  Li  Li50  1  -0.21823499  0.80720686  0.11719207  1
  Li  Li51  1  0.71823499  0.19279314  -0.38280793  1
  Li  Li52  1  0.38280793  0.21823499  0.30720686  1
  Li  Li53  1  0.88280793  0.28176501  -0.30720686  1
  Li  Li54  1  0.11719207  -0.21823499  0.80720686  1
  Li  Li55  1  -0.38280793  0.71823499  0.19279314  1
  Li  Li56  1  0.30720686  0.38280793  0.21823499  1
  Li  Li57  1  -0.30720686  0.88280793  0.28176501  1
  Li  Li58  1  0.80720686  0.11719207  -0.21823499  1
  Li  Li59  1  0.19279314  -0.38280793  0.71823499  1
  Li  Li60  1  1.05720686  0.46823499  -0.13280793  1
  Li  Li61  1  0.44279314  0.53176501  0.36719207  1
  Li  Li62  1  0.55720686  0.03176501  1.13280793  1
  Li  Li63  1  -0.05720686  0.96823499  0.63280793  1
  Li  Li64  1  0.96823499  0.63280793  -0.05720686  1
  Li  Li65  1  0.03176501  1.13280793  0.55720686  1
  Li  Li66  1  0.53176501  0.36719207  0.44279314  1
  Li  Li67  1  0.46823499  -0.13280793  1.05720686  1
  Li  Li68  1  1.13280793  0.55720686  0.03176501  1
  Li  Li69  1  0.63280793  -0.05720686  0.96823499  1
  Li  Li70  1  -0.13280793  1.05720686  0.46823499  1
  Li  Li71  1  0.36719207  0.44279314  0.53176501  1
  Li  Li72  1  0.71823499  0.80720686  0.88280793  1
  Li  Li73  1  0.78176501  0.19279314  1.38280793  1
  Li  Li74  1  0.28176501  1.30720686  0.61719207  1
  Li  Li75  1  1.21823499  0.69279314  0.11719207  1
  Li  Li76  1  0.88280793  0.71823499  0.80720686  1
  Li  Li77  1  1.38280793  0.78176501  0.19279314  1
  Li  Li78  1  0.61719207  0.28176501  1.30720686  1
  Li  Li79  1  0.11719207  1.21823499  0.69279314  1
  Li  Li80  1  0.80720686  0.88280793  0.71823499  1
  Li  Li81  1  0.19279314  1.38280793  0.78176501  1
  Li  Li82  1  1.30720686  0.61719207  0.28176501  1
  Li  Li83  1  0.69279314  0.11719207  1.21823499  1
  Li  Li84  1  1.55720686  0.96823499  0.36719207  1
  Li  Li85  1  0.94279314  1.03176501  0.86719207  1
  Li  Li86  1  1.05720686  0.53176501  1.63280793  1
  Li  Li87  1  0.44279314  1.46823499  1.13280793  1
  Li  Li88  1  1.46823499  1.13280793  0.44279314  1
  Li  Li89  1  0.53176501  1.63280793  1.05720686  1
  Li  Li90  1  1.03176501  0.86719207  0.94279314  1
  Li  Li91  1  0.96823499  0.36719207  1.55720686  1
  Li  Li92  1  1.63280793  1.05720686  0.53176501  1
  Li  Li93  1  1.13280793  0.44279314  1.46823499  1
  Li  Li94  1  0.36719207  1.55720686  0.96823499  1
  Li  Li95  1  0.86719207  0.94279314  1.03176501  1
  Li  Li96  1  0.81615854  0.62211986  0.74782166  1
  Li  Li97  1  0.68384146  0.37788014  0.24782166  1
  Li  Li98  1  0.18384146  0.12211986  0.75217834  1
  Li  Li99  1  0.31615854  0.87788014  0.25217834  1
  Li  Li100  1  0.74782166  0.81615854  0.62211986  1
  Li  Li101  1  0.24782166  0.68384146  0.37788014  1
  Li  Li102  1  0.75217834  0.18384146  0.12211986  1
  Li  Li103  1  0.25217834  0.31615854  0.87788014  1
  Li  Li104  1  0.62211986  0.74782166  0.81615854  1
  Li  Li105  1  0.37788014  0.24782166  0.68384146  1
  Li  Li106  1  0.12211986  0.75217834  0.18384146  1
  Li  Li107  1  0.87788014  0.25217834  0.31615854  1
  Li  Li108  1  0.37211986  0.06615854  0.50217834  1
  Li  Li109  1  0.12788014  0.93384146  0.00217834  1
  Li  Li110  1  0.87211986  0.43384146  0.49782166  1
  Li  Li111  1  0.62788014  0.56615854  0.99782166  1
  Li  Li112  1  0.56615854  0.99782166  0.62788014  1
  Li  Li113  1  0.43384146  0.49782166  0.87211986  1
  Li  Li114  1  0.93384146  0.00217834  0.12788014  1
  Li  Li115  1  0.06615854  0.50217834  0.37211986  1
  Li  Li116  1  0.49782166  0.87211986  0.43384146  1
  Li  Li117  1  0.99782166  0.62788014  0.56615854  1
  Li  Li118  1  0.50217834  0.37211986  0.06615854  1
  Li  Li119  1  0.00217834  0.12788014  0.93384146  1
  Li  Li120  1  0.31615854  0.12211986  0.24782166  1
  Li  Li121  1  0.18384146  0.87788014  0.74782166  1
  Li  Li122  1  0.68384146  0.62211986  0.25217834  1
  Li  Li123  1  0.81615854  0.37788014  0.75217834  1
  Li  Li124  1  0.24782166  0.31615854  0.12211986  1
  Li  Li125  1  0.74782166  0.18384146  0.87788014  1
  Li  Li126  1  0.25217834  0.68384146  0.62211986  1
  Li  Li127  1  0.75217834  0.81615854  0.37788014  1
  Li  Li128  1  0.12211986  0.24782166  0.31615854  1
  Li  Li129  1  0.87788014  0.74782166  0.18384146  1
  Li  Li130  1  0.62211986  0.25217834  0.68384146  1
  Li  Li131  1  0.37788014  0.75217834  0.81615854  1
  Li  Li132  1  0.87211986  0.56615854  0.00217834  1
  Li  Li133  1  0.62788014  0.43384146  0.50217834  1
  Li  Li134  1  0.37211986  0.93384146  0.99782166  1
  Li  Li135  1  0.12788014  0.06615854  0.49782166  1
  Li  Li136  1  0.06615854  0.49782166  0.12788014  1
  Li  Li137  1  0.93384146  0.99782166  0.37211986  1
  Li  Li138  1  0.43384146  0.50217834  0.62788014  1
  Li  Li139  1  0.56615854  0.00217834  0.87211986  1
  Li  Li140  1  0.99782166  0.37211986  0.93384146  1
  Li  Li141  1  0.49782166  0.12788014  0.06615854  1
  Li  Li142  1  0.00217834  0.87211986  0.56615854  1
  Li  Li143  1  0.50217834  0.62788014  0.43384146  1
  Te  Te144  1  0.87500000  0.87500000  0.87500000  1
  Te  Te145  1  0.62500000  0.12500000  0.37500000  1
  Te  Te146  1  0.12500000  0.37500000  0.62500000  1
  Te  Te147  1  0.37500000  0.62500000  0.12500000  1
  Te  Te148  1  0.37500000  0.37500000  0.37500000  1
  Te  Te149  1  0.12500000  0.62500000  0.87500000  1
  Te  Te150  1  0.62500000  0.87500000  0.12500000  1
  Te  Te151  1  0.87500000  0.12500000  0.62500000  1
  Te  Te152  1  0.30817736  0.30817736  0.30817736  1
  Te  Te153  1  0.19182264  0.69182264  0.80817736  1
  Te  Te154  1  0.69182264  0.80817736  0.19182264  1
  Te  Te155  1  0.80817736  0.19182264  0.69182264  1
  Te  Te156  1  0.05817736  0.55817736  0.94182264  1
  Te  Te157  1  0.44182264  0.44182264  0.44182264  1
  Te  Te158  1  0.55817736  0.94182264  0.05817736  1
  Te  Te159  1  0.94182264  0.05817736  0.55817736  1
  Te  Te160  1  0.80817736  0.80817736  0.80817736  1
  Te  Te161  1  0.69182264  0.19182264  0.30817736  1
  Te  Te162  1  0.19182264  0.30817736  0.69182264  1
  Te  Te163  1  0.30817736  0.69182264  0.19182264  1
  Te  Te164  1  0.55817736  0.05817736  0.44182264  1
  Te  Te165  1  0.94182264  0.94182264  0.94182264  1
  Te  Te166  1  0.05817736  0.44182264  0.55817736  1
  Te  Te167  1  0.44182264  0.55817736  0.05817736  1
