# generated using pymatgen
data_LiF
_symmetry_space_group_name_H-M   'P 1'
_cell_length_a   9.69638945
_cell_length_b   8.57254831
_cell_length_c   10.81239883
_cell_angle_alpha   90.00000000
_cell_angle_beta   90.00000000
_cell_angle_gamma   90.00000000
_symmetry_Int_Tables_number   1
_chemical_formula_structural   LiF
_chemical_formula_sum   'Li32 F32'
_cell_volume   898.75650930
_cell_formula_units_Z   32
loop_
 _symmetry_equiv_pos_site_id
 _symmetry_equiv_pos_as_xyz
  1  'x, y, z'
loop_
 _atom_site_type_symbol
 _atom_site_label
 _atom_site_symmetry_multiplicity
 _atom_site_fract_x
 _atom_site_fract_y
 _atom_site_fract_z
 _atom_site_occupancy
  F  F0  1  0.86805978  0.83126713  0.50000000  1
  F  F1  1  0.13194022  0.16873287  0.50000000  1
  F  F2  1  0.63194022  0.33126713  0.50000000  1
  F  F3  1  0.36805978  0.66873287  0.50000000  1
  F  F4  1  0.58448679  0.38104221  0.82795386  1
  F  F5  1  0.41551321  0.61895779  0.82795386  1
  F  F6  1  0.91551321  0.88104221  0.17204614  1
  F  F7  1  0.08448679  0.11895779  0.17204614  1
  F  F8  1  0.41551321  0.61895779  0.17204614  1
  F  F9  1  0.58448679  0.38104221  0.17204614  1
  F  F10  1  0.08448679  0.11895779  0.82795386  1
  F  F11  1  0.91551321  0.88104221  0.82795386  1
  F  F12  1  0.17980518  0.46303543  0.00000000  1
  F  F13  1  0.82019482  0.53696457  -0.00000000  1
  F  F14  1  0.32019482  0.96303543  0.00000000  1
  F  F15  1  0.67980518  0.03696457  0.00000000  1
  F  F16  1  0.83022624  0.70271657  0.93913596  1
  F  F17  1  0.16977376  0.29728343  0.93913596  1
  F  F18  1  0.66977376  0.20271657  0.06086404  1
  F  F19  1  0.33022624  0.79728343  0.06086404  1
  F  F20  1  0.16977376  0.29728343  0.06086404  1
  F  F21  1  0.83022624  0.70271657  0.06086404  1
  F  F22  1  0.33022624  0.79728343  0.93913596  1
  F  F23  1  0.66977376  0.20271657  0.93913596  1
  F  F24  1  0.92279990  0.23421089  0.13823800  1
  F  F25  1  0.07720010  0.76578911  0.13823800  1
  F  F26  1  0.57720010  0.73421089  0.86176200  1
  F  F27  1  0.42279990  0.26578911  0.86176200  1
  F  F28  1  0.07720010  0.76578911  0.86176200  1
  F  F29  1  0.92279990  0.23421089  0.86176200  1
  F  F30  1  0.42279990  0.26578911  0.13823800  1
  F  F31  1  0.57720010  0.73421089  0.13823800  1
  Li  Li32  1  0.15924160  0.32881301  0.60666482  1
  Li  Li33  1  -0.15924160  -0.32881301  0.60666482  1
  Li  Li34  1  0.34075840  0.82881301  -0.60666482  1
  Li  Li35  1  0.65924160  0.17118699  -0.60666482  1
  Li  Li36  1  -0.15924160  -0.32881301  -0.60666482  1
  Li  Li37  1  0.15924160  0.32881301  -0.60666482  1
  Li  Li38  1  0.65924160  0.17118699  0.60666482  1
  Li  Li39  1  0.34075840  0.82881301  0.60666482  1
  Li  Li40  1  0.04575623  0.62925027  0.07571295  1
  Li  Li41  1  0.95424377  0.37074973  0.07571295  1
  Li  Li42  1  0.45424377  0.12925027  0.92428705  1
  Li  Li43  1  0.54575623  0.87074973  0.92428705  1
  Li  Li44  1  0.95424377  0.37074973  0.92428705  1
  Li  Li45  1  0.04575623  0.62925027  0.92428705  1
  Li  Li46  1  0.54575623  0.87074973  0.07571295  1
  Li  Li47  1  0.45424377  0.12925027  0.07571295  1
  Li  Li48  1  0.68710893  0.65947657  0.57428730  1
  Li  Li49  1  0.31289107  0.34052343  0.57428730  1
  Li  Li50  1  0.81289107  0.15947657  0.42571270  1
  Li  Li51  1  0.18710893  0.84052343  0.42571270  1
  Li  Li52  1  0.31289107  0.34052343  0.42571270  1
  Li  Li53  1  0.68710893  0.65947657  0.42571270  1
  Li  Li54  1  0.18710893  0.84052343  0.57428730  1
  Li  Li55  1  0.81289107  0.15947657  0.57428730  1
  Li  Li56  1  0.00000000  0.00000000  0.50000000  1
  Li  Li57  1  0.50000000  0.50000000  0.50000000  1
  Li  Li58  1  0.00000000  0.50000000  0.20836041  1
  Li  Li59  1  0.50000000  0.00000000  0.79163959  1
  Li  Li60  1  0.00000000  0.50000000  0.79163959  1
  Li  Li61  1  0.50000000  0.00000000  0.20836041  1
  Li  Li62  1  0.00000000  0.50000000  0.00000000  1
  Li  Li63  1  0.50000000  0.00000000  0.00000000  1
