# generated using pymatgen
data_Li3Y2MoP3Se2
_symmetry_space_group_name_H-M   'P 1'
_cell_length_a   4.89839592
_cell_length_b   5.21272275
_cell_length_c   7.12992794
_cell_angle_alpha   94.94037266
_cell_angle_beta   100.75910457
_cell_angle_gamma   109.84351346
_symmetry_Int_Tables_number   1
_chemical_formula_structural   Li3Y2MoP3Se2
_chemical_formula_sum   'Li3 Y2 Mo1 P3 Se2'
_cell_volume   166.01934404
_cell_formula_units_Z   1
loop_
 _symmetry_equiv_pos_site_id
 _symmetry_equiv_pos_as_xyz
  1  'x, y, z'
loop_
 _atom_site_type_symbol
 _atom_site_label
 _atom_site_symmetry_multiplicity
 _atom_site_fract_x
 _atom_site_fract_y
 _atom_site_fract_z
 _atom_site_occupancy
  Y  Y0  1  0.00000000  0.00000000  0.00000000  1
  Y  Y1  1  0.50000000  0.50000000  0.50000000  1
  P  P2  1  0.25000000  0.25000000  0.25000000  1
  P  P3  1  0.75000000  0.25000000  0.00000000  1
  P  P4  1  0.25000000  0.75000000  0.50000000  1
  Mo  Mo5  1  0.39712035  0.09014478  0.14688672  1
  Se  Se6  1  0.56719322  0.38791332  0.07269966  1
  Se  Se7  1  0.29280716  0.73778246  0.93089256  1
  Li  Li8  1  0.14482300  0.10902638  0.61099346  1
  Li  Li9  1  0.66307124  0.98425893  0.39386869  1
  Li  Li10  1  0.47335285  0.75794124  0.14760158  1
