# generated using pymatgen
data_Li2YP3
_symmetry_space_group_name_H-M   'P 1'
_cell_length_a   4.71627423
_cell_length_b   4.94033849
_cell_length_c   7.03482919
_cell_angle_alpha   95.41347833
_cell_angle_beta   101.67065835
_cell_angle_gamma   111.16659740
_symmetry_Int_Tables_number   1
_chemical_formula_structural   Li2YP3
_chemical_formula_sum   'Li2 Y1 P3'
_cell_volume   147.15731357
_cell_formula_units_Z   1
loop_
 _symmetry_equiv_pos_site_id
 _symmetry_equiv_pos_as_xyz
  1  'x, y, z'
loop_
 _atom_site_type_symbol
 _atom_site_label
 _atom_site_symmetry_multiplicity
 _atom_site_fract_x
 _atom_site_fract_y
 _atom_site_fract_z
 _atom_site_occupancy
  Y  Y0  1  0.00000000  0.00000000  0.00000000  1
  P  P1  1  0.50000000  0.50000000  0.50000000  1
  P  P2  1  0.25000000  0.25000000  0.25000000  1
  P  P3  1  0.75000000  0.25000000  0.00000000  1
  Li  Li4  1  0.25000000  0.75000000  0.50000000  1
  Li  Li5  1  0.36986802  0.54642445  0.83481760  1
