# generated using pymatgen
data_LiF
_symmetry_space_group_name_H-M   'P 1'
_cell_length_a   8.27700769
_cell_length_b   8.27700769
_cell_length_c   7.20081908
_cell_angle_alpha   90.00000000
_cell_angle_beta   90.00000000
_cell_angle_gamma   120.00000000
_symmetry_Int_Tables_number   1
_chemical_formula_structural   LiF
_chemical_formula_sum   'Li15 F15'
_cell_volume   427.22754769
_cell_formula_units_Z   15
loop_
 _symmetry_equiv_pos_site_id
 _symmetry_equiv_pos_as_xyz
  1  'x, y, z'
loop_
 _atom_site_type_symbol
 _atom_site_label
 _atom_site_symmetry_multiplicity
 _atom_site_fract_x
 _atom_site_fract_y
 _atom_site_fract_z
 _atom_site_occupancy
  F  F0  1  0.00000000  0.00000000  0.50000000  1
  F  F1  1  0.35177326  0.60191066  0.07012460  1
  F  F2  1  0.39808934  0.74986260  0.07012460  1
  F  F3  1  0.25013740  0.64822674  0.07012460  1
  F  F4  1  0.39808934  0.64822674  0.92987540  1
  F  F5  1  0.25013740  0.60191066  0.92987540  1
  F  F6  1  0.35177326  0.74986260  0.92987540  1
  F  F7  1  0.66666667  0.33333333  0.00000000  1
  F  F8  1  0.75877613  0.47611069  0.96431652  1
  F  F9  1  0.52388931  0.28266544  0.96431652  1
  F  F10  1  0.71733456  0.24122387  0.96431652  1
  F  F11  1  0.52388931  0.24122387  0.03568348  1
  F  F12  1  0.71733456  0.47611069  0.03568348  1
  F  F13  1  0.75877613  0.28266544  0.03568348  1
  F  F14  1  0.33333333  0.66666667  0.50000000  1
  Li  Li15  1  0.33333333  0.66666667  0.78565535  1
  Li  Li16  1  0.33333333  0.66666667  0.21434465  1
  Li  Li17  1  0.54471294  0.89967596  0.18862365  1
  Li  Li18  1  -0.89967596  -0.35496302  0.18862365  1
  Li  Li19  1  0.35496302  -0.54471294  0.18862365  1
  Li  Li20  1  -0.89967596  -0.54471294  -0.18862365  1
  Li  Li21  1  0.35496302  0.89967596  -0.18862365  1
  Li  Li22  1  0.54471294  -0.35496302  -0.18862365  1
  Li  Li23  1  0.49720801  0.50279199  0.50000000  1
  Li  Li24  1  0.49720801  0.99441602  0.50000000  1
  Li  Li25  1  0.00558398  0.50279199  0.50000000  1
  Li  Li26  1  0.00000000  0.00000000  0.00000000  1
  Li  Li27  1  0.72971369  0.27028631  0.50000000  1
  Li  Li28  1  0.72971369  0.45942737  0.50000000  1
  Li  Li29  1  0.54057263  0.27028631  0.50000000  1
