# generated using pymatgen
data_LiYAs2PSe
_symmetry_space_group_name_H-M   'P 1'
_cell_length_a   5.48296459
_cell_length_b   5.46507065
_cell_length_c   7.00521892
_cell_angle_alpha   93.82852955
_cell_angle_beta   98.33774142
_cell_angle_gamma   105.37768157
_symmetry_Int_Tables_number   1
_chemical_formula_structural   LiYAs2PSe
_chemical_formula_sum   'Li2 Y2 As4 P2 Se2'
_cell_volume   199.03383642
_cell_formula_units_Z   2
loop_
 _symmetry_equiv_pos_site_id
 _symmetry_equiv_pos_as_xyz
  1  'x, y, z'
loop_
 _atom_site_type_symbol
 _atom_site_label
 _atom_site_symmetry_multiplicity
 _atom_site_fract_x
 _atom_site_fract_y
 _atom_site_fract_z
 _atom_site_occupancy
  Se  Se0  1  0.00000000  0.00000000  0.00000000  1
  Se  Se1  1  0.50000000  0.50000000  0.50000000  1
  P  P2  1  0.25000000  0.25000000  0.25000000  1
  P  P3  1  0.75000000  0.25000000  0.00000000  1
  As  As4  1  0.25000000  0.75000000  0.50000000  1
  As  As5  1  0.21886647  0.57542316  0.74273725  1
  As  As6  1  0.20613518  0.62637934  0.59397252  1
  As  As7  1  0.34681285  0.03330234  0.34605730  1
  Li  Li8  1  0.15200595  0.93297193  0.53962405  1
  Li  Li9  1  0.54454995  0.81314195  0.28385889  1
  Y  Y10  1  0.22213603  0.29113666  0.70291779  1
  Y  Y11  1  0.15572614  0.40836999  0.44893497  1
