# generated using pymatgen
data_LiCaF3
_symmetry_space_group_name_H-M   'P 1'
_cell_length_a   5.60840666
_cell_length_b   5.60840666
_cell_length_c   55.83205775
_cell_angle_alpha   90.00000000
_cell_angle_beta   90.00000000
_cell_angle_gamma   120.00000000
_symmetry_Int_Tables_number   1
_chemical_formula_structural   LiCaF3
_chemical_formula_sum   'Li18 Ca18 F54'
_cell_volume   1520.87408407
_cell_formula_units_Z   18
loop_
 _symmetry_equiv_pos_site_id
 _symmetry_equiv_pos_as_xyz
  1  'x, y, z'
loop_
 _atom_site_type_symbol
 _atom_site_label
 _atom_site_symmetry_multiplicity
 _atom_site_fract_x
 _atom_site_fract_y
 _atom_site_fract_z
 _atom_site_occupancy
  Ca  Ca0  1  0.00000000  0.00000000  0.00000000  1
  Ca  Ca1  1  0.00000000  0.00000000  0.50000000  1
  Ca  Ca2  1  0.66666667  0.33333333  0.33333333  1
  Ca  Ca3  1  0.66666667  0.33333333  0.83333333  1
  Ca  Ca4  1  0.33333333  0.66666667  0.66666667  1
  Ca  Ca5  1  0.33333333  0.66666667  0.16666667  1
  Ca  Ca6  1  0.00000000  0.00000000  0.93227259  1
  Ca  Ca7  1  0.00000000  0.00000000  0.56772741  1
  Ca  Ca8  1  0.00000000  0.00000000  0.06772741  1
  Ca  Ca9  1  0.00000000  0.00000000  0.43227259  1
  Ca  Ca10  1  0.66666667  0.33333333  0.26560592  1
  Ca  Ca11  1  0.66666667  0.33333333  0.90106075  1
  Ca  Ca12  1  0.66666667  0.33333333  0.40106075  1
  Ca  Ca13  1  0.66666667  0.33333333  0.76560592  1
  Ca  Ca14  1  0.33333333  0.66666667  0.59893925  1
  Ca  Ca15  1  0.33333333  0.66666667  0.23439408  1
  Ca  Ca16  1  0.33333333  0.66666667  0.73439408  1
  Ca  Ca17  1  0.33333333  0.66666667  0.09893925  1
  F  F18  1  0.66850275  0.00000000  0.25000000  1
  F  F19  1  0.00000000  0.66850275  0.25000000  1
  F  F20  1  0.33149725  0.33149725  0.25000000  1
  F  F21  1  0.33149725  -0.00000000  0.75000000  1
  F  F22  1  0.00000000  0.33149725  0.75000000  1
  F  F23  1  0.66850275  0.66850275  0.75000000  1
  F  F24  1  0.33516941  0.33333333  0.58333333  1
  F  F25  1  0.66666667  0.00183608  0.58333333  1
  F  F26  1  0.99816392  0.66483059  0.58333333  1
  F  F27  1  0.99816392  0.33333333  0.08333333  1
  F  F28  1  0.66666667  0.66483059  0.08333333  1
  F  F29  1  0.33516941  0.00183608  0.08333333  1
  F  F30  1  0.00183608  0.66666667  0.91666667  1
  F  F31  1  0.33333333  0.33516941  0.91666667  1
  F  F32  1  0.66483059  0.99816392  0.91666667  1
  F  F33  1  0.66483059  0.66666667  0.41666667  1
  F  F34  1  0.33333333  0.99816392  0.41666667  1
  F  F35  1  0.00183608  0.33516941  0.41666667  1
  F  F36  1  0.68733315  0.42838257  0.02177021  1
  F  F37  1  -0.42838257  0.25895058  0.02177021  1
  F  F38  1  -0.25895058  -0.68733315  0.02177021  1
  F  F39  1  0.42838257  0.68733315  0.47822979  1
  F  F40  1  0.25895058  -0.42838257  0.47822979  1
  F  F41  1  -0.68733315  -0.25895058  0.47822979  1
  F  F42  1  -0.68733315  -0.42838257  -0.02177021  1
  F  F43  1  0.42838257  -0.25895058  -0.02177021  1
  F  F44  1  0.25895058  0.68733315  -0.02177021  1
  F  F45  1  -0.42838257  -0.68733315  0.52177021  1
  F  F46  1  -0.25895058  0.42838257  0.52177021  1
  F  F47  1  0.68733315  0.25895058  0.52177021  1
  F  F48  1  1.35399982  0.76171591  0.35510354  1
  F  F49  1  0.23828409  0.59228391  0.35510354  1
  F  F50  1  0.40771609  -0.35399982  0.35510354  1
  F  F51  1  1.09504924  1.02066649  0.81156313  1
  F  F52  1  0.92561725  -0.09504924  0.81156313  1
  F  F53  1  -0.02066649  0.07438275  0.81156313  1
  F  F54  1  -0.02066649  -0.09504924  0.31156313  1
  F  F55  1  1.09504924  0.07438275  0.31156313  1
  F  F56  1  0.92561725  1.02066649  0.31156313  1
  F  F57  1  0.23828409  -0.35399982  0.85510354  1
  F  F58  1  0.40771609  0.76171591  0.85510354  1
  F  F59  1  1.35399982  0.59228391  0.85510354  1
  F  F60  1  1.02066649  1.09504924  0.68843687  1
  F  F61  1  -0.09504924  0.92561725  0.68843687  1
  F  F62  1  0.07438275  -0.02066649  0.68843687  1
  F  F63  1  0.76171591  1.35399982  1.14489646  1
  F  F64  1  0.59228391  0.23828409  1.14489646  1
  F  F65  1  -0.35399982  0.40771609  1.14489646  1
  F  F66  1  -0.35399982  0.23828409  0.64489646  1
  F  F67  1  0.76171591  0.40771609  0.64489646  1
  F  F68  1  0.59228391  1.35399982  0.64489646  1
  F  F69  1  -0.09504924  -0.02066649  1.18843687  1
  F  F70  1  0.07438275  1.09504924  1.18843687  1
  F  F71  1  1.02066649  0.92561725  1.18843687  1
  Li  Li72  1  0.49432494  0.00000000  0.25000000  1
  Li  Li73  1  0.00000000  0.49432494  0.25000000  1
  Li  Li74  1  0.50567506  0.50567506  0.25000000  1
  Li  Li75  1  0.50567506  0.00000000  0.75000000  1
  Li  Li76  1  0.00000000  0.50567506  0.75000000  1
  Li  Li77  1  0.49432494  0.49432494  0.75000000  1
  Li  Li78  1  0.16099161  0.33333333  0.58333333  1
  Li  Li79  1  0.66666667  0.82765828  0.58333333  1
  Li  Li80  1  0.17234172  0.83900839  0.58333333  1
  Li  Li81  1  0.17234172  0.33333333  0.08333333  1
  Li  Li82  1  0.66666667  0.83900839  0.08333333  1
  Li  Li83  1  0.16099161  0.82765828  0.08333333  1
  Li  Li84  1  0.82765828  0.66666667  0.91666667  1
  Li  Li85  1  0.33333333  0.16099161  0.91666667  1
  Li  Li86  1  0.83900839  0.17234172  0.91666667  1
  Li  Li87  1  0.83900839  0.66666667  0.41666667  1
  Li  Li88  1  0.33333333  0.17234172  0.41666667  1
  Li  Li89  1  0.82765828  0.16099161  0.41666667  1
