# generated using pymatgen
data_Li3Y2Al(AsP)2
_symmetry_space_group_name_H-M   'P 1'
_cell_length_a   5.51761887
_cell_length_b   5.64619612
_cell_length_c   6.85067764
_cell_angle_alpha   93.75984783
_cell_angle_beta   96.94295548
_cell_angle_gamma   99.05049035
_symmetry_Int_Tables_number   1
_chemical_formula_structural   Li3Y2Al(AsP)2
_chemical_formula_sum   'Li3 Y2 Al1 As2 P2'
_cell_volume   208.43998283
_cell_formula_units_Z   1
loop_
 _symmetry_equiv_pos_site_id
 _symmetry_equiv_pos_as_xyz
  1  'x, y, z'
loop_
 _atom_site_type_symbol
 _atom_site_label
 _atom_site_symmetry_multiplicity
 _atom_site_fract_x
 _atom_site_fract_y
 _atom_site_fract_z
 _atom_site_occupancy
  Al  Al0  1  0.00000000  0.00000000  0.00000000  1
  P  P1  1  0.50000000  0.50000000  0.50000000  1
  P  P2  1  0.50000000  0.50000000  0.00000000  1
  As  As3  1  0.50000000  0.00000000  0.50000000  1
  As  As4  1  0.00000000  0.50000000  0.50000000  1
  Li  Li5  1  0.37517186  0.16822518  0.45721395  1
  Li  Li6  1  0.58232047  0.19603529  0.57224622  1
  Li  Li7  1  0.36476401  0.09547294  0.64556812  1
  Y  Y8  1  0.66542847  0.16926466  0.59881476  1
  Y  Y9  1  0.09818013  0.15013217  0.87124095  1
