# generated using pymatgen
data_LiYAs2PSe
_symmetry_space_group_name_H-M   'P 1'
_cell_length_a   4.88745022
_cell_length_b   4.99854520
_cell_length_c   6.92867129
_cell_angle_alpha   94.90394386
_cell_angle_beta   100.67977022
_cell_angle_gamma   109.69719346
_symmetry_Int_Tables_number   1
_chemical_formula_structural   LiYAs2PSe
_chemical_formula_sum   'Li2 Y2 As4 P2 Se2'
_cell_volume   154.58827242
_cell_formula_units_Z   2
loop_
 _symmetry_equiv_pos_site_id
 _symmetry_equiv_pos_as_xyz
  1  'x, y, z'
loop_
 _atom_site_type_symbol
 _atom_site_label
 _atom_site_symmetry_multiplicity
 _atom_site_fract_x
 _atom_site_fract_y
 _atom_site_fract_z
 _atom_site_occupancy
  Se  Se0  1  0.12500000  0.00000000  0.25000000  1
  Se  Se1  1  0.00000000  0.00000000  0.00000000  1
  P  P2  1  0.37500000  0.00000000  0.25000000  1
  P  P3  1  0.25000000  0.25000000  0.25000000  1
  As  As4  1  0.00000000  0.25000000  0.12500000  1
  As  As5  1  0.43631685  0.20345172  0.74333610  1
  As  As6  1  0.50148548  0.65813623  0.41323732  1
  As  As7  1  0.28699066  0.50663810  0.71191270  1
  Li  Li8  1  0.52321125  0.33989533  0.72232461  1
  Li  Li9  1  0.46025815  0.16221336  0.15568508  1
  Y  Y10  1  0.48918481  0.35271746  0.11197837  1
  Y  Y11  1  0.45022604  0.48599743  0.03052804  1
