# generated using pymatgen
data_Li3Y2P3Se
_symmetry_space_group_name_H-M   'P 1'
_cell_length_a   5.57139158
_cell_length_b   5.85504915
_cell_length_c   7.22132667
_cell_angle_alpha   93.30593376
_cell_angle_beta   97.42556247
_cell_angle_gamma   103.55141476
_symmetry_Int_Tables_number   1
_chemical_formula_structural   Li3Y2P3Se
_chemical_formula_sum   'Li3 Y2 P3 Se1'
_cell_volume   226.13950914
_cell_formula_units_Z   1
loop_
 _symmetry_equiv_pos_site_id
 _symmetry_equiv_pos_as_xyz
  1  'x, y, z'
loop_
 _atom_site_type_symbol
 _atom_site_label
 _atom_site_symmetry_multiplicity
 _atom_site_fract_x
 _atom_site_fract_y
 _atom_site_fract_z
 _atom_site_occupancy
  Se  Se0  1  0.12500000  0.12500000  0.12500000  1
  P  P1  1  0.50000000  0.50000000  0.50000000  1
  P  P2  1  0.25000000  0.25000000  0.25000000  1
  P  P3  1  0.75000000  0.75000000  0.75000000  1
  Li  Li4  1  0.83883200  0.73190926  0.49764354  1
  Li  Li5  1  0.17589791  0.11875548  0.14933691  1
  Li  Li6  1  0.30560075  0.51219661  0.66682145  1
  Y  Y7  1  0.32144439  0.16840051  0.39412330  1
  Y  Y8  1  0.25178702  0.68722757  0.29177640  1
