# generated using pymatgen
data_Li2Ca3F8
_symmetry_space_group_name_H-M   'P 1'
_cell_length_a   13.47286231
_cell_length_b   13.47286231
_cell_length_c   14.59710409
_cell_angle_alpha   90.00000000
_cell_angle_beta   90.00000000
_cell_angle_gamma   120.00000000
_symmetry_Int_Tables_number   1
_chemical_formula_structural   Li2Ca3F8
_chemical_formula_sum   'Li16 Ca24 F64'
_cell_volume   2294.65331029
_cell_formula_units_Z   8
loop_
 _symmetry_equiv_pos_site_id
 _symmetry_equiv_pos_as_xyz
  1  'x, y, z'
loop_
 _atom_site_type_symbol
 _atom_site_label
 _atom_site_symmetry_multiplicity
 _atom_site_fract_x
 _atom_site_fract_y
 _atom_site_fract_z
 _atom_site_occupancy
  Ca  Ca0  1  0.15816597  0.82387436  0.75756297  1
  Ca  Ca1  1  0.17612564  0.33429160  0.75756297  1
  Ca  Ca2  1  0.66570840  0.84183403  0.75756297  1
  Ca  Ca3  1  0.17612564  0.84183403  0.24243703  1
  Ca  Ca4  1  0.66570840  0.82387436  0.24243703  1
  Ca  Ca5  1  0.15816597  0.33429160  0.24243703  1
  Ca  Ca6  1  0.46918908  0.74257635  0.39735024  1
  Ca  Ca7  1  0.25742365  0.72661273  0.39735024  1
  Ca  Ca8  1  0.27338727  0.53081092  0.39735024  1
  Ca  Ca9  1  0.25742365  0.53081092  0.60264976  1
  Ca  Ca10  1  0.27338727  0.74257635  0.60264976  1
  Ca  Ca11  1  0.46918908  0.72661273  0.60264976  1
  Ca  Ca12  1  0.54698976  0.16702800  0.60727914  1
  Ca  Ca13  1  0.83297200  0.37996176  0.60727914  1
  Ca  Ca14  1  0.62003824  0.45301024  0.60727914  1
  Ca  Ca15  1  0.83297200  0.45301024  0.39272086  1
  Ca  Ca16  1  0.62003824  0.16702800  0.39272086  1
  Ca  Ca17  1  0.54698976  0.37996176  0.39272086  1
  Ca  Ca18  1  0.40557114  0.54548083  0.25227718  1
  Ca  Ca19  1  0.45451917  0.86009031  0.25227718  1
  Ca  Ca20  1  0.13990969  0.59442886  0.25227718  1
  Ca  Ca21  1  0.45451917  0.59442886  0.74772282  1
  Ca  Ca22  1  0.13990969  0.54548083  0.74772282  1
  Ca  Ca23  1  0.40557114  0.86009031  0.74772282  1
  F  F24  1  0.93632496  0.23190542  0.59817196  1
  F  F25  1  -0.23190542  0.70441954  0.59817196  1
  F  F26  1  -0.70441954  -0.93632496  0.59817196  1
  F  F27  1  -0.23190542  -0.93632496  -0.59817196  1
  F  F28  1  -0.70441954  0.23190542  -0.59817196  1
  F  F29  1  0.93632496  0.70441954  -0.59817196  1
  F  F30  1  0.21474988  0.89150153  0.65767843  1
  F  F31  1  0.10849847  0.32324836  0.65767843  1
  F  F32  1  0.67675164  0.78525012  0.65767843  1
  F  F33  1  0.10849847  0.78525012  0.34232157  1
  F  F34  1  0.67675164  0.89150153  0.34232157  1
  F  F35  1  0.21474988  0.32324836  0.34232157  1
  F  F36  1  0.08807227  0.24741644  0.72313458  1
  F  F37  1  0.75258356  0.84065583  0.72313458  1
  F  F38  1  0.15934417  0.91192773  0.72313458  1
  F  F39  1  0.75258356  0.91192773  0.27686542  1
  F  F40  1  0.15934417  0.24741644  0.27686542  1
  F  F41  1  0.08807227  0.84065583  0.27686542  1
  F  F42  1  0.33333333  0.66666667  0.50000000  1
  F  F43  1  0.61233401  0.06045325  0.79311478  1
  F  F44  1  0.93954675  0.55188076  0.79311478  1
  F  F45  1  0.44811924  0.38766599  0.79311478  1
  F  F46  1  0.93954675  0.38766599  0.20688522  1
  F  F47  1  0.44811924  0.06045325  0.20688522  1
  F  F48  1  0.61233401  0.55188076  0.20688522  1
  F  F49  1  0.33333333  0.66666667  0.00000000  1
  F  F50  1  0.02578214  0.77487523  0.31057608  1
  F  F51  1  0.22512477  0.25090692  0.31057608  1
  F  F52  1  0.74909308  0.97421786  0.31057608  1
  F  F53  1  0.22512477  0.97421786  0.68942392  1
  F  F54  1  0.74909308  0.77487523  0.68942392  1
  F  F55  1  0.02578214  0.25090692  0.68942392  1
  F  F56  1  0.09366507  0.90633493  -0.00000000  1
  F  F57  1  0.09366507  0.18733015  -0.00000000  1
  F  F58  1  0.81266985  0.90633493  -0.00000000  1
  F  F59  1  0.66666667  0.33333333  0.50000000  1
  F  F60  1  0.27196220  0.19360801  0.27226635  1
  F  F61  1  0.80639199  0.07835419  0.27226635  1
  F  F62  1  0.92164581  0.72803780  0.27226635  1
  F  F63  1  0.80639199  0.72803780  0.72773365  1
  F  F64  1  0.92164581  0.19360801  0.72773365  1
  F  F65  1  0.27196220  0.07835419  0.72773365  1
  F  F66  1  0.72382671  0.42867708  0.22313235  1
  F  F67  1  0.57132292  0.29514963  0.22313235  1
  F  F68  1  0.70485037  0.27617329  0.22313235  1
  F  F69  1  0.57132292  0.27617329  0.77686765  1
  F  F70  1  0.70485037  0.42867708  0.77686765  1
  F  F71  1  0.72382671  0.29514963  0.77686765  1
  F  F72  1  0.63781057  0.04500109  0.26957586  1
  F  F73  1  0.95499891  0.59280948  0.26957586  1
  F  F74  1  0.40719052  0.36218943  0.26957586  1
  F  F75  1  0.95499891  0.36218943  0.73042414  1
  F  F76  1  0.40719052  0.04500109  0.73042414  1
  F  F77  1  0.63781057  0.59280948  0.73042414  1
  F  F78  1  0.33333333  0.66666667  0.81249921  1
  F  F79  1  0.33333333  0.66666667  0.18750079  1
  F  F80  1  0.27073529  0.72926471  0.00000000  1
  F  F81  1  0.27073529  0.54147059  0.00000000  1
  F  F82  1  0.45852941  0.72926471  -0.00000000  1
  F  F83  1  0.66666667  0.33333333  0.67289119  1
  F  F84  1  0.66666667  0.33333333  0.32710881  1
  F  F85  1  0.87050173  0.12949827  0.50000000  1
  F  F86  1  0.87050173  0.74100347  0.50000000  1
  F  F87  1  0.25899653  0.12949827  0.50000000  1
  Li  Li88  1  0.56698499  0.43301501  -0.00000000  1
  Li  Li89  1  0.56698499  0.13396997  -0.00000000  1
  Li  Li90  1  0.86603003  0.43301501  0.00000000  1
  Li  Li91  1  0.70093334  0.95583377  0.94168012  1
  Li  Li92  1  0.04416623  0.74509957  0.94168012  1
  Li  Li93  1  0.25490043  0.29906666  0.94168012  1
  Li  Li94  1  0.04416623  0.29906666  0.05831988  1
  Li  Li95  1  0.25490043  0.95583377  0.05831988  1
  Li  Li96  1  0.70093334  0.74509957  0.05831988  1
  Li  Li97  1  0.16252023  0.07560362  0.08523282  1
  Li  Li98  1  0.92439638  0.08691661  0.08523282  1
  Li  Li99  1  0.91308339  0.83747977  0.08523282  1
  Li  Li100  1  0.92439638  0.83747977  0.91476718  1
  Li  Li101  1  0.91308339  0.07560362  0.91476718  1
  Li  Li102  1  0.16252023  0.08691661  0.91476718  1
  Li  Li103  1  0.00000000  0.00000000  0.50000000  1
