# generated using pymatgen
data_LiY2As4PSe
_symmetry_space_group_name_H-M   'P 1'
_cell_length_a   4.70337194
_cell_length_b   4.86000884
_cell_length_c   6.43709205
_cell_angle_alpha   94.82489679
_cell_angle_beta   98.75439353
_cell_angle_gamma   106.63016634
_symmetry_Int_Tables_number   1
_chemical_formula_structural   LiY2As4PSe
_chemical_formula_sum   'Li1 Y2 As4 P1 Se1'
_cell_volume   138.07257684
_cell_formula_units_Z   1
loop_
 _symmetry_equiv_pos_site_id
 _symmetry_equiv_pos_as_xyz
  1  'x, y, z'
loop_
 _atom_site_type_symbol
 _atom_site_label
 _atom_site_symmetry_multiplicity
 _atom_site_fract_x
 _atom_site_fract_y
 _atom_site_fract_z
 _atom_site_occupancy
  Se  Se0  1  0.12500000  0.00000000  0.25000000  1
  Y  Y1  1  0.00000000  0.00000000  0.00000000  1
  Y  Y2  1  0.37500000  0.00000000  0.25000000  1
  P  P3  1  0.25000000  0.25000000  0.25000000  1
  As  As4  1  0.00000000  0.25000000  0.12500000  1
  As  As5  1  0.70972240  0.18619057  0.33324398  1
  As  As6  1  0.96477551  0.09698457  0.00128099  1
  As  As7  1  0.27271657  0.18677292  0.92370889  1
  Li  Li8  1  0.47883479  0.52324133  0.27257233  1
