# generated using pymatgen
data_LiYAs2P
_symmetry_space_group_name_H-M   'P 1'
_cell_length_a   4.68159079
_cell_length_b   4.81239463
_cell_length_c   6.90826652
_cell_angle_alpha   95.34700739
_cell_angle_beta   101.64467047
_cell_angle_gamma   111.47680355
_symmetry_Int_Tables_number   1
_chemical_formula_structural   LiYAs2P
_chemical_formula_sum   'Li2 Y2 As4 P2'
_cell_volume   139.44904241
_cell_formula_units_Z   2
loop_
 _symmetry_equiv_pos_site_id
 _symmetry_equiv_pos_as_xyz
  1  'x, y, z'
loop_
 _atom_site_type_symbol
 _atom_site_label
 _atom_site_symmetry_multiplicity
 _atom_site_fract_x
 _atom_site_fract_y
 _atom_site_fract_z
 _atom_site_occupancy
  P  P0  1  0.12500000  0.12500000  0.12500000  1
  P  P1  1  0.50000000  0.50000000  0.50000000  1
  As  As2  1  0.25000000  0.25000000  0.25000000  1
  As  As3  1  0.75000000  0.75000000  0.75000000  1
  As  As4  1  0.87139320  0.19766064  0.76417337  1
  As  As5  1  0.08174359  0.03701173  0.99300683  1
  Li  Li6  1  0.29220017  0.15691804  0.05794371  1
  Li  Li7  1  0.55050736  0.03567515  0.42394440  1
  Y  Y8  1  0.29571595  0.15123150  0.75986115  1
  Y  Y9  1  0.15784040  0.24275087  0.92927449  1
