# generated using pymatgen
data_LiF
_symmetry_space_group_name_H-M   'P 1'
_cell_length_a   16.01371980
_cell_length_b   8.18725632
_cell_length_c   4.75424880
_cell_angle_alpha   90.00000000
_cell_angle_beta   90.00000000
_cell_angle_gamma   90.00000000
_symmetry_Int_Tables_number   1
_chemical_formula_structural   LiF
_chemical_formula_sum   'Li24 F24'
_cell_volume   623.32208946
_cell_formula_units_Z   24
loop_
 _symmetry_equiv_pos_site_id
 _symmetry_equiv_pos_as_xyz
  1  'x, y, z'
loop_
 _atom_site_type_symbol
 _atom_site_label
 _atom_site_symmetry_multiplicity
 _atom_site_fract_x
 _atom_site_fract_y
 _atom_site_fract_z
 _atom_site_occupancy
  F  F0  1  0.74285755  0.04101378  0.41592239  1
  F  F1  1  0.75714245  0.95898622  0.91592239  1
  F  F2  1  0.25714245  0.54101378  0.58407761  1
  F  F3  1  0.24285755  0.45898622  0.08407761  1
  F  F4  1  0.25714245  0.95898622  0.58407761  1
  F  F5  1  0.24285755  0.04101378  0.08407761  1
  F  F6  1  0.74285755  0.45898622  0.41592239  1
  F  F7  1  0.75714245  0.54101378  0.91592239  1
  F  F8  1  0.63248105  0.01417614  0.77240903  1
  F  F9  1  0.86751895  0.98582386  0.27240903  1
  F  F10  1  0.36751895  0.51417614  0.22759097  1
  F  F11  1  0.13248105  0.48582386  0.72759097  1
  F  F12  1  0.36751895  0.98582386  0.22759097  1
  F  F13  1  0.13248105  0.01417614  0.72759097  1
  F  F14  1  0.63248105  0.48582386  0.77240903  1
  F  F15  1  0.86751895  0.51417614  0.27240903  1
  F  F16  1  0.39884389  0.67937652  0.93706385  1
  F  F17  1  0.10115611  0.32062348  0.43706385  1
  F  F18  1  0.60115611  0.17937652  0.06293615  1
  F  F19  1  0.89884389  0.82062348  0.56293615  1
  F  F20  1  0.60115611  0.32062348  0.06293615  1
  F  F21  1  0.89884389  0.67937652  0.56293615  1
  F  F22  1  0.39884389  0.82062348  0.93706385  1
  F  F23  1  0.10115611  0.17937652  0.43706385  1
  Li  Li24  1  0.94021355  0.25000000  0.48166859  1
  Li  Li25  1  0.55978645  0.75000000  0.98166859  1
  Li  Li26  1  0.05978645  0.75000000  0.51833141  1
  Li  Li27  1  0.44021355  0.25000000  0.01833141  1
  Li  Li28  1  0.32036118  0.25000000  0.28585871  1
  Li  Li29  1  0.17963882  0.75000000  0.78585871  1
  Li  Li30  1  0.67963882  0.75000000  0.71414129  1
  Li  Li31  1  0.82036118  0.25000000  0.21414129  1
  Li  Li32  1  0.00000000  0.00000000  0.50000000  1
  Li  Li33  1  0.50000000  0.00000000  0.00000000  1
  Li  Li34  1  0.00000000  0.50000000  0.50000000  1
  Li  Li35  1  0.50000000  0.50000000  0.00000000  1
  Li  Li36  1  0.17313757  0.11024335  0.32992731  1
  Li  Li37  1  0.32686243  -0.11024335  0.82992731  1
  Li  Li38  1  -0.17313757  0.61024335  -0.32992731  1
  Li  Li39  1  0.67313757  0.38975665  0.17007269  1
  Li  Li40  1  -0.17313757  -0.11024335  -0.32992731  1
  Li  Li41  1  0.67313757  0.11024335  0.17007269  1
  Li  Li42  1  0.17313757  0.38975665  0.32992731  1
  Li  Li43  1  0.32686243  0.61024335  0.82992731  1
  Li  Li44  1  0.00000000  0.00000000  0.00000000  1
  Li  Li45  1  0.50000000  0.00000000  0.50000000  1
  Li  Li46  1  0.00000000  0.50000000  0.00000000  1
  Li  Li47  1  0.50000000  0.50000000  0.50000000  1
