# generated using pymatgen
data_Li4TeF2
_symmetry_space_group_name_H-M   'P 1'
_cell_length_a   12.17628453
_cell_length_b   12.17628453
_cell_length_c   11.85549875
_cell_angle_alpha   90.00000000
_cell_angle_beta   90.00000000
_cell_angle_gamma   120.00000000
_symmetry_Int_Tables_number   1
_chemical_formula_structural   Li4TeF2
_chemical_formula_sum   'Li96 Te24 F48'
_cell_volume   1522.22915920
_cell_formula_units_Z   24
loop_
 _symmetry_equiv_pos_site_id
 _symmetry_equiv_pos_as_xyz
  1  'x, y, z'
loop_
 _atom_site_type_symbol
 _atom_site_label
 _atom_site_symmetry_multiplicity
 _atom_site_fract_x
 _atom_site_fract_y
 _atom_site_fract_z
 _atom_site_occupancy
  F  F0  1  0.56855377  0.25544582  0.29461617  1
  F  F1  1  -0.25544582  0.31310796  0.29461617  1
  F  F2  1  -0.31310796  -0.56855377  0.29461617  1
  F  F3  1  0.25544582  0.56855377  0.20538383  1
  F  F4  1  0.31310796  -0.25544582  0.20538383  1
  F  F5  1  -0.56855377  -0.31310796  0.20538383  1
  F  F6  1  -0.56855377  -0.25544582  -0.29461617  1
  F  F7  1  0.25544582  -0.31310796  -0.29461617  1
  F  F8  1  0.31310796  0.56855377  -0.29461617  1
  F  F9  1  -0.25544582  -0.56855377  0.79461617  1
  F  F10  1  -0.31310796  0.25544582  0.79461617  1
  F  F11  1  0.56855377  0.31310796  0.79461617  1
  F  F12  1  1.23522044  0.58877915  0.62794950  1
  F  F13  1  0.41122085  0.64644129  0.62794950  1
  F  F14  1  0.35355871  -0.23522044  0.62794950  1
  F  F15  1  0.92211248  0.90188711  0.53871717  1
  F  F16  1  0.97977462  0.07788752  0.53871717  1
  F  F17  1  0.09811289  0.02022538  0.53871717  1
  F  F18  1  0.09811289  0.07788752  0.03871717  1
  F  F19  1  0.92211248  0.02022538  0.03871717  1
  F  F20  1  0.97977462  0.90188711  0.03871717  1
  F  F21  1  0.41122085  -0.23522044  1.12794950  1
  F  F22  1  0.35355871  0.58877915  1.12794950  1
  F  F23  1  1.23522044  0.64644129  1.12794950  1
  F  F24  1  0.90188711  0.92211248  0.96128283  1
  F  F25  1  0.07788752  0.97977462  0.96128283  1
  F  F26  1  0.02022538  0.09811289  0.96128283  1
  F  F27  1  0.58877915  1.23522044  0.87205050  1
  F  F28  1  0.64644129  0.41122085  0.87205050  1
  F  F29  1  -0.23522044  0.35355871  0.87205050  1
  F  F30  1  -0.23522044  0.41122085  0.37205050  1
  F  F31  1  0.58877915  0.35355871  0.37205050  1
  F  F32  1  0.64644129  1.23522044  0.37205050  1
  F  F33  1  0.07788752  0.09811289  1.46128283  1
  F  F34  1  0.02022538  0.92211248  1.46128283  1
  F  F35  1  0.90188711  0.97977462  1.46128283  1
  F  F36  1  0.00000000  0.00000000  0.41226347  1
  F  F37  1  0.00000000  0.00000000  0.08773653  1
  F  F38  1  0.00000000  0.00000000  0.58773653  1
  F  F39  1  0.00000000  0.00000000  0.91226347  1
  F  F40  1  0.66666667  0.33333333  0.74559680  1
  F  F41  1  0.66666667  0.33333333  0.42106987  1
  F  F42  1  0.66666667  0.33333333  0.92106987  1
  F  F43  1  0.66666667  0.33333333  0.24559680  1
  F  F44  1  0.33333333  0.66666667  0.07893013  1
  F  F45  1  0.33333333  0.66666667  0.75440320  1
  F  F46  1  0.33333333  0.66666667  0.25440320  1
  F  F47  1  0.33333333  0.66666667  0.57893013  1
  Li  Li48  1  0.19443915  0.72208865  0.14507431  1
  Li  Li49  1  0.27791135  0.47235050  0.14507431  1
  Li  Li50  1  0.52764950  0.80556085  0.14507431  1
  Li  Li51  1  0.72208865  0.19443915  0.35492569  1
  Li  Li52  1  0.47235050  0.27791135  0.35492569  1
  Li  Li53  1  0.80556085  0.52764950  0.35492569  1
  Li  Li54  1  0.80556085  0.27791135  0.85492569  1
  Li  Li55  1  0.72208865  0.52764950  0.85492569  1
  Li  Li56  1  0.47235050  0.19443915  0.85492569  1
  Li  Li57  1  0.27791135  0.80556085  0.64507431  1
  Li  Li58  1  0.52764950  0.72208865  0.64507431  1
  Li  Li59  1  0.19443915  0.47235050  0.64507431  1
  Li  Li60  1  0.86110582  0.05542198  0.47840764  1
  Li  Li61  1  0.94457802  0.80568384  0.47840764  1
  Li  Li62  1  0.19431616  0.13889418  0.47840764  1
  Li  Li63  1  0.38875531  0.52777248  0.68825902  1
  Li  Li64  1  0.13901717  0.61124469  0.68825902  1
  Li  Li65  1  0.47222752  0.86098283  0.68825902  1
  Li  Li66  1  0.47222752  0.61124469  0.18825902  1
  Li  Li67  1  0.38875531  0.86098283  0.18825902  1
  Li  Li68  1  0.13901717  0.52777248  0.18825902  1
  Li  Li69  1  0.94457802  0.13889418  0.97840764  1
  Li  Li70  1  0.19431616  0.05542198  0.97840764  1
  Li  Li71  1  0.86110582  0.80568384  0.97840764  1
  Li  Li72  1  0.52777248  0.38875531  0.81174098  1
  Li  Li73  1  0.61124469  0.13901717  0.81174098  1
  Li  Li74  1  0.86098283  0.47222752  0.81174098  1
  Li  Li75  1  0.05542198  0.86110582  0.02159236  1
  Li  Li76  1  0.80568384  0.94457802  0.02159236  1
  Li  Li77  1  0.13889418  0.19431616  0.02159236  1
  Li  Li78  1  0.13889418  0.94457802  0.52159236  1
  Li  Li79  1  0.05542198  0.19431616  0.52159236  1
  Li  Li80  1  0.80568384  0.86110582  0.52159236  1
  Li  Li81  1  0.61124469  0.47222752  0.31174098  1
  Li  Li82  1  0.86098283  0.38875531  0.31174098  1
  Li  Li83  1  0.52777248  0.13901717  0.31174098  1
  Li  Li84  1  0.50000000  0.00000000  0.00000000  1
  Li  Li85  1  0.00000000  0.50000000  0.00000000  1
  Li  Li86  1  0.50000000  0.50000000  0.00000000  1
  Li  Li87  1  0.00000000  0.50000000  0.50000000  1
  Li  Li88  1  0.50000000  0.00000000  0.50000000  1
  Li  Li89  1  0.50000000  0.50000000  0.50000000  1
  Li  Li90  1  0.16666667  0.33333333  0.33333333  1
  Li  Li91  1  0.66666667  0.83333333  0.33333333  1
  Li  Li92  1  0.16666667  0.83333333  0.33333333  1
  Li  Li93  1  0.66666667  0.83333333  0.83333333  1
  Li  Li94  1  0.16666667  0.33333333  0.83333333  1
  Li  Li95  1  0.16666667  0.83333333  0.83333333  1
  Li  Li96  1  0.83333333  0.66666667  0.66666667  1
  Li  Li97  1  0.33333333  0.16666667  0.66666667  1
  Li  Li98  1  0.83333333  0.16666667  0.66666667  1
  Li  Li99  1  0.33333333  0.16666667  0.16666667  1
  Li  Li100  1  0.83333333  0.66666667  0.16666667  1
  Li  Li101  1  0.83333333  0.16666667  0.16666667  1
  Li  Li102  1  0.59566726  0.69160154  0.26220617  1
  Li  Li103  1  0.30839846  0.90406571  0.26220617  1
  Li  Li104  1  0.09593429  0.40433274  0.26220617  1
  Li  Li105  1  0.69160154  0.59566726  0.23779383  1
  Li  Li106  1  0.90406571  0.30839846  0.23779383  1
  Li  Li107  1  0.40433274  0.09593429  0.23779383  1
  Li  Li108  1  0.40433274  0.30839846  0.73779383  1
  Li  Li109  1  0.69160154  0.09593429  0.73779383  1
  Li  Li110  1  0.90406571  0.59566726  0.73779383  1
  Li  Li111  1  0.30839846  0.40433274  0.76220617  1
  Li  Li112  1  0.09593429  0.69160154  0.76220617  1
  Li  Li113  1  0.59566726  0.90406571  0.76220617  1
  Li  Li114  1  0.26233392  0.02493488  0.59553950  1
  Li  Li115  1  0.97506512  0.23739905  0.59553950  1
  Li  Li116  1  0.76260095  0.73766608  0.59553950  1
  Li  Li117  1  0.35826821  0.92900059  0.57112717  1
  Li  Li118  1  0.57073238  0.64173179  0.57112717  1
  Li  Li119  1  0.07099941  0.42926762  0.57112717  1
  Li  Li120  1  0.07099941  0.64173179  0.07112717  1
  Li  Li121  1  0.35826821  0.42926762  0.07112717  1
  Li  Li122  1  0.57073238  0.92900059  0.07112717  1
  Li  Li123  1  0.97506512  0.73766608  0.09553950  1
  Li  Li124  1  0.76260095  0.02493488  0.09553950  1
  Li  Li125  1  0.26233392  0.23739905  0.09553950  1
  Li  Li126  1  0.92900059  0.35826821  0.92887283  1
  Li  Li127  1  0.64173179  0.57073238  0.92887283  1
  Li  Li128  1  0.42926762  0.07099941  0.92887283  1
  Li  Li129  1  0.02493488  0.26233392  0.90446050  1
  Li  Li130  1  0.23739905  0.97506512  0.90446050  1
  Li  Li131  1  0.73766608  0.76260095  0.90446050  1
  Li  Li132  1  0.73766608  0.97506512  0.40446050  1
  Li  Li133  1  0.02493488  0.76260095  0.40446050  1
  Li  Li134  1  0.23739905  0.26233392  0.40446050  1
  Li  Li135  1  0.64173179  0.07099941  0.42887283  1
  Li  Li136  1  0.42926762  0.35826821  0.42887283  1
  Li  Li137  1  0.92900059  0.57073238  0.42887283  1
  Li  Li138  1  0.00000000  0.00000000  0.00000000  1
  Li  Li139  1  0.00000000  0.00000000  0.50000000  1
  Li  Li140  1  0.66666667  0.33333333  0.33333333  1
  Li  Li141  1  0.66666667  0.33333333  0.83333333  1
  Li  Li142  1  0.33333333  0.66666667  0.66666667  1
  Li  Li143  1  0.33333333  0.66666667  0.16666667  1
  Te  Te144  1  0.00000000  0.00000000  0.25000000  1
  Te  Te145  1  0.00000000  0.00000000  0.75000000  1
  Te  Te146  1  0.66666667  0.33333333  0.58333333  1
  Te  Te147  1  0.66666667  0.33333333  0.08333333  1
  Te  Te148  1  0.33333333  0.66666667  0.91666667  1
  Te  Te149  1  0.33333333  0.66666667  0.41666667  1
  Te  Te150  1  0.79141150  0.00000000  0.25000000  1
  Te  Te151  1  0.00000000  0.79141150  0.25000000  1
  Te  Te152  1  0.20858850  0.20858850  0.25000000  1
  Te  Te153  1  0.20858850  0.00000000  0.75000000  1
  Te  Te154  1  0.00000000  0.20858850  0.75000000  1
  Te  Te155  1  0.79141150  0.79141150  0.75000000  1
  Te  Te156  1  0.45807817  0.33333333  0.58333333  1
  Te  Te157  1  0.66666667  0.12474483  0.58333333  1
  Te  Te158  1  0.87525517  0.54192183  0.58333333  1
  Te  Te159  1  0.87525517  0.33333333  0.08333333  1
  Te  Te160  1  0.66666667  0.54192183  0.08333333  1
  Te  Te161  1  0.45807817  0.12474483  0.08333333  1
  Te  Te162  1  0.12474483  0.66666667  0.91666667  1
  Te  Te163  1  0.33333333  0.45807817  0.91666667  1
  Te  Te164  1  0.54192183  0.87525517  0.91666667  1
  Te  Te165  1  0.54192183  0.66666667  0.41666667  1
  Te  Te166  1  0.33333333  0.87525517  0.41666667  1
  Te  Te167  1  0.12474483  0.45807817  0.41666667  1
