# generated using pymatgen
data_LiF
_symmetry_space_group_name_H-M   'P 1'
_cell_length_a   10.49502772
_cell_length_b   10.49502772
_cell_length_c   16.34289119
_cell_angle_alpha   90.00000000
_cell_angle_beta   90.00000000
_cell_angle_gamma   90.00000000
_symmetry_Int_Tables_number   1
_chemical_formula_structural   LiF
_chemical_formula_sum   'Li64 F64'
_cell_volume   1800.09766631
_cell_formula_units_Z   64
loop_
 _symmetry_equiv_pos_site_id
 _symmetry_equiv_pos_as_xyz
  1  'x, y, z'
loop_
 _atom_site_type_symbol
 _atom_site_label
 _atom_site_symmetry_multiplicity
 _atom_site_fract_x
 _atom_site_fract_y
 _atom_site_fract_z
 _atom_site_occupancy
  F  F0  1  0.43829920  0.67336987  0.42011503  1
  F  F1  1  0.06170080  0.32663013  0.92011503  1
  F  F2  1  0.57663013  0.18829920  0.67011503  1
  F  F3  1  0.92336987  0.81170080  0.17011503  1
  F  F4  1  0.06170080  0.67336987  0.57988497  1
  F  F5  1  0.43829920  0.32663013  0.07988497  1
  F  F6  1  0.92336987  0.18829920  0.32988497  1
  F  F7  1  0.57663013  0.81170080  0.82988497  1
  F  F8  1  0.56170080  0.32663013  0.57988497  1
  F  F9  1  0.93829920  0.67336987  0.07988497  1
  F  F10  1  0.42336987  0.81170080  0.32988497  1
  F  F11  1  0.07663013  0.18829920  0.82988497  1
  F  F12  1  0.93829920  0.32663013  0.42011503  1
  F  F13  1  0.56170080  0.67336987  0.92011503  1
  F  F14  1  0.07663013  0.81170080  0.67011503  1
  F  F15  1  0.42336987  0.18829920  0.17011503  1
  F  F16  1  0.93829920  0.17336987  0.92011503  1
  F  F17  1  0.56170080  0.82663013  0.42011503  1
  F  F18  1  0.07663013  0.68829920  0.17011503  1
  F  F19  1  0.42336987  0.31170080  0.67011503  1
  F  F20  1  0.56170080  0.17336987  0.07988497  1
  F  F21  1  0.93829920  0.82663013  0.57988497  1
  F  F22  1  0.42336987  0.68829920  0.82988497  1
  F  F23  1  0.07663013  0.31170080  0.32988497  1
  F  F24  1  0.06170080  0.82663013  0.07988497  1
  F  F25  1  0.43829920  0.17336987  0.57988497  1
  F  F26  1  0.92336987  0.31170080  0.82988497  1
  F  F27  1  0.57663013  0.68829920  0.32988497  1
  F  F28  1  0.43829920  0.82663013  0.92011503  1
  F  F29  1  0.06170080  0.17336987  0.42011503  1
  F  F30  1  0.57663013  0.31170080  0.17011503  1
  F  F31  1  0.92336987  0.68829920  0.67011503  1
  F  F32  1  0.93414141  0.82613497  0.90448479  1
  F  F33  1  0.56585859  0.17386503  0.40448479  1
  F  F34  1  0.42386503  0.68414141  0.15448479  1
  F  F35  1  0.07613497  0.31585859  0.65448479  1
  F  F36  1  0.56585859  0.82613497  0.09551521  1
  F  F37  1  0.93414141  0.17386503  0.59551521  1
  F  F38  1  0.07613497  0.68414141  0.84551521  1
  F  F39  1  0.42386503  0.31585859  0.34551521  1
  F  F40  1  0.06585859  0.17386503  0.09551521  1
  F  F41  1  0.43414141  0.82613497  0.59551521  1
  F  F42  1  0.57613497  0.31585859  0.84551521  1
  F  F43  1  0.92386503  0.68414141  0.34551521  1
  F  F44  1  0.43414141  0.17386503  0.90448479  1
  F  F45  1  0.06585859  0.82613497  0.40448479  1
  F  F46  1  0.92386503  0.31585859  0.15448479  1
  F  F47  1  0.57613497  0.68414141  0.65448479  1
  F  F48  1  0.43414141  0.32613497  0.40448479  1
  F  F49  1  0.06585859  0.67386503  0.90448479  1
  F  F50  1  0.92386503  0.18414141  0.65448479  1
  F  F51  1  0.57613497  0.81585859  0.15448479  1
  F  F52  1  0.06585859  0.32613497  0.59551521  1
  F  F53  1  0.43414141  0.67386503  0.09551521  1
  F  F54  1  0.57613497  0.18414141  0.34551521  1
  F  F55  1  0.92386503  0.81585859  0.84551521  1
  F  F56  1  0.56585859  0.67386503  0.59551521  1
  F  F57  1  0.93414141  0.32613497  0.09551521  1
  F  F58  1  0.07613497  0.81585859  0.34551521  1
  F  F59  1  0.42386503  0.18414141  0.84551521  1
  F  F60  1  0.93414141  0.67386503  0.40448479  1
  F  F61  1  0.56585859  0.32613497  0.90448479  1
  F  F62  1  0.42386503  0.81585859  0.65448479  1
  F  F63  1  0.07613497  0.18414141  0.15448479  1
  Li  Li64  1  0.00000000  0.25000000  0.37500000  1
  Li  Li65  1  0.00000000  0.75000000  0.62500000  1
  Li  Li66  1  0.50000000  0.25000000  0.62500000  1
  Li  Li67  1  0.50000000  0.75000000  0.37500000  1
  Li  Li68  1  0.50000000  0.75000000  0.87500000  1
  Li  Li69  1  0.50000000  0.25000000  0.12500000  1
  Li  Li70  1  0.00000000  0.75000000  0.12500000  1
  Li  Li71  1  0.00000000  0.25000000  0.87500000  1
  Li  Li72  1  0.20900470  0.56785197  0.13298377  1
  Li  Li73  1  0.29099530  -0.56785197  0.63298377  1
  Li  Li74  1  -0.31785197  0.95900470  0.38298377  1
  Li  Li75  1  0.81785197  0.04099530  0.88298377  1
  Li  Li76  1  0.29099530  0.56785197  -0.13298377  1
  Li  Li77  1  0.20900470  -0.56785197  0.36701623  1
  Li  Li78  1  0.81785197  0.95900470  0.61701623  1
  Li  Li79  1  -0.31785197  0.04099530  0.11701623  1
  Li  Li80  1  -0.20900470  -0.56785197  -0.13298377  1
  Li  Li81  1  0.70900470  0.56785197  0.36701623  1
  Li  Li82  1  1.31785197  0.04099530  0.61701623  1
  Li  Li83  1  0.18214803  0.95900470  0.11701623  1
  Li  Li84  1  0.70900470  -0.56785197  0.13298377  1
  Li  Li85  1  -0.20900470  0.56785197  0.63298377  1
  Li  Li86  1  0.18214803  0.04099530  0.38298377  1
  Li  Li87  1  1.31785197  0.95900470  0.88298377  1
  Li  Li88  1  0.70900470  1.06785197  0.63298377  1
  Li  Li89  1  0.79099530  -0.06785197  1.13298377  1
  Li  Li90  1  0.18214803  1.45900470  0.88298377  1
  Li  Li91  1  1.31785197  0.54099530  1.38298377  1
  Li  Li92  1  0.79099530  1.06785197  0.36701623  1
  Li  Li93  1  0.70900470  -0.06785197  0.86701623  1
  Li  Li94  1  1.31785197  1.45900470  1.11701623  1
  Li  Li95  1  0.18214803  0.54099530  0.61701623  1
  Li  Li96  1  0.29099530  -0.06785197  0.36701623  1
  Li  Li97  1  1.20900470  1.06785197  0.86701623  1
  Li  Li98  1  1.81785197  0.54099530  1.11701623  1
  Li  Li99  1  0.68214803  1.45900470  0.61701623  1
  Li  Li100  1  1.20900470  -0.06785197  0.63298377  1
  Li  Li101  1  0.29099530  1.06785197  1.13298377  1
  Li  Li102  1  0.68214803  0.54099530  0.88298377  1
  Li  Li103  1  1.81785197  1.45900470  1.38298377  1
  Li  Li104  1  0.00000000  0.00000000  0.00000000  1
  Li  Li105  1  0.50000000  0.00000000  0.50000000  1
  Li  Li106  1  0.25000000  0.75000000  0.25000000  1
  Li  Li107  1  0.25000000  0.25000000  0.75000000  1
  Li  Li108  1  0.50000000  0.00000000  0.00000000  1
  Li  Li109  1  0.00000000  0.00000000  0.50000000  1
  Li  Li110  1  0.25000000  0.75000000  0.75000000  1
  Li  Li111  1  0.25000000  0.25000000  0.25000000  1
  Li  Li112  1  0.50000000  0.50000000  0.50000000  1
  Li  Li113  1  0.00000000  0.50000000  0.00000000  1
  Li  Li114  1  0.75000000  0.25000000  0.75000000  1
  Li  Li115  1  0.75000000  0.75000000  0.25000000  1
  Li  Li116  1  0.00000000  0.50000000  0.50000000  1
  Li  Li117  1  0.50000000  0.50000000  0.00000000  1
  Li  Li118  1  0.75000000  0.25000000  0.25000000  1
  Li  Li119  1  0.75000000  0.75000000  0.75000000  1
  Li  Li120  1  0.00000000  0.25000000  0.12500000  1
  Li  Li121  1  0.00000000  0.75000000  0.37500000  1
  Li  Li122  1  0.00000000  0.75000000  0.87500000  1
  Li  Li123  1  0.00000000  0.25000000  0.62500000  1
  Li  Li124  1  0.50000000  0.75000000  0.62500000  1
  Li  Li125  1  0.50000000  0.25000000  0.87500000  1
  Li  Li126  1  0.50000000  0.25000000  0.37500000  1
  Li  Li127  1  0.50000000  0.75000000  0.12500000  1
