# generated using pymatgen
data_Li3Y2As2P4Se
_symmetry_space_group_name_H-M   'P 1'
_cell_length_a   5.33310539
_cell_length_b   5.49079665
_cell_length_c   7.39533072
_cell_angle_alpha   94.19438212
_cell_angle_beta   99.13449226
_cell_angle_gamma   106.84716594
_symmetry_Int_Tables_number   1
_chemical_formula_structural   Li3Y2As2P4Se
_chemical_formula_sum   'Li3 Y2 As2 P4 Se1'
_cell_volume   203.00136368
_cell_formula_units_Z   1
loop_
 _symmetry_equiv_pos_site_id
 _symmetry_equiv_pos_as_xyz
  1  'x, y, z'
loop_
 _atom_site_type_symbol
 _atom_site_label
 _atom_site_symmetry_multiplicity
 _atom_site_fract_x
 _atom_site_fract_y
 _atom_site_fract_z
 _atom_site_occupancy
  Se  Se0  1  0.00000000  0.00000000  0.00000000  1
  Y  Y1  1  0.50000000  0.50000000  0.50000000  1
  Y  Y2  1  0.25000000  0.25000000  0.25000000  1
  P  P3  1  0.75000000  0.25000000  0.00000000  1
  P  P4  1  0.25000000  0.75000000  0.50000000  1
  P  P5  1  0.07852442  0.90619745  0.13434709  1
  P  P6  1  0.17660583  0.12461881  0.28683213  1
  As  As7  1  0.48883867  0.88524651  0.97238136  1
  As  As8  1  0.37938208  0.01001823  0.92893199  1
  Li  Li9  1  0.76349673  0.11388137  0.83137572  1
  Li  Li10  1  0.30498721  0.94456585  0.26973157  1
  Li  Li11  1  0.39501008  0.74532054  0.41627106  1
