# generated using pymatgen
data_LiYMoP
_symmetry_space_group_name_H-M   'P 1'
_cell_length_a   4.63717672
_cell_length_b   4.82224538
_cell_length_c   6.72046231
_cell_angle_alpha   95.02710392
_cell_angle_beta   100.71398351
_cell_angle_gamma   108.92003489
_symmetry_Int_Tables_number   1
_chemical_formula_structural   LiYMoP
_chemical_formula_sum   'Li2 Y2 Mo2 P2'
_cell_volume   137.90289887
_cell_formula_units_Z   2
loop_
 _symmetry_equiv_pos_site_id
 _symmetry_equiv_pos_as_xyz
  1  'x, y, z'
loop_
 _atom_site_type_symbol
 _atom_site_label
 _atom_site_symmetry_multiplicity
 _atom_site_fract_x
 _atom_site_fract_y
 _atom_site_fract_z
 _atom_site_occupancy
  Y  Y0  1  0.00000000  0.00000000  0.00000000  1
  Y  Y1  1  0.50000000  0.50000000  0.50000000  1
  P  P2  1  0.25000000  0.25000000  0.25000000  1
  P  P3  1  0.75000000  0.25000000  0.00000000  1
  Mo  Mo4  1  0.25000000  0.75000000  0.50000000  1
  Mo  Mo5  1  0.91269884  0.60140389  0.17048897  1
  Li  Li6  1  0.91618922  0.11343547  0.32577186  1
  Li  Li7  1  0.33045424  0.54469834  0.65482122  1
