# generated using pymatgen
data_LiF
_symmetry_space_group_name_H-M   'P 1'
_cell_length_a   10.14162751
_cell_length_b   10.14162751
_cell_length_c   10.14162751
_cell_angle_alpha   90.00000000
_cell_angle_beta   90.00000000
_cell_angle_gamma   90.00000000
_symmetry_Int_Tables_number   1
_chemical_formula_structural   LiF
_chemical_formula_sum   'Li48 F48'
_cell_volume   1043.09284354
_cell_formula_units_Z   48
loop_
 _symmetry_equiv_pos_site_id
 _symmetry_equiv_pos_as_xyz
  1  'x, y, z'
loop_
 _atom_site_type_symbol
 _atom_site_label
 _atom_site_symmetry_multiplicity
 _atom_site_fract_x
 _atom_site_fract_y
 _atom_site_fract_z
 _atom_site_occupancy
  F  F0  1  0.68469686  0.74998409  0.01540799  1
  F  F1  1  -0.18469686  -0.74998409  0.51540799  1
  F  F2  1  -0.68469686  1.24998409  0.48459201  1
  F  F3  1  1.18469686  -0.24998409  -0.01540799  1
  F  F4  1  0.01540799  0.68469686  0.74998409  1
  F  F5  1  0.51540799  -0.18469686  -0.74998409  1
  F  F6  1  0.48459201  -0.68469686  1.24998409  1
  F  F7  1  -0.01540799  1.18469686  -0.24998409  1
  F  F8  1  0.74998409  0.01540799  0.68469686  1
  F  F9  1  -0.74998409  0.51540799  -0.18469686  1
  F  F10  1  1.24998409  0.48459201  -0.68469686  1
  F  F11  1  -0.24998409  -0.01540799  1.18469686  1
  F  F12  1  1.49998409  0.93469686  0.23459201  1
  F  F13  1  0.00001591  0.06530314  0.73459201  1
  F  F14  1  0.99998409  -0.43469686  0.76540799  1
  F  F15  1  -0.49998409  1.43469686  0.26540799  1
  F  F16  1  1.43469686  0.26540799  -0.49998409  1
  F  F17  1  -0.43469686  0.76540799  0.99998409  1
  F  F18  1  0.06530314  0.73459201  0.00001591  1
  F  F19  1  0.93469686  0.23459201  1.49998409  1
  F  F20  1  0.76540799  0.99998409  -0.43469686  1
  F  F21  1  0.26540799  -0.49998409  1.43469686  1
  F  F22  1  0.23459201  1.49998409  0.93469686  1
  F  F23  1  0.73459201  0.00001591  0.06530314  1
  F  F24  1  1.18469686  1.24998409  0.51540799  1
  F  F25  1  0.31530314  -0.24998409  1.01540799  1
  F  F26  1  -0.18469686  1.74998409  0.98459201  1
  F  F27  1  1.68469686  0.25001591  0.48459201  1
  F  F28  1  0.51540799  1.18469686  1.24998409  1
  F  F29  1  1.01540799  0.31530314  -0.24998409  1
  F  F30  1  0.98459201  -0.18469686  1.74998409  1
  F  F31  1  0.48459201  1.68469686  0.25001591  1
  F  F32  1  1.24998409  0.51540799  1.18469686  1
  F  F33  1  -0.24998409  1.01540799  0.31530314  1
  F  F34  1  1.74998409  0.98459201  -0.18469686  1
  F  F35  1  0.25001591  0.48459201  1.68469686  1
  F  F36  1  1.99998409  1.43469686  0.73459201  1
  F  F37  1  0.50001591  0.56530314  1.23459201  1
  F  F38  1  1.49998409  0.06530314  1.26540799  1
  F  F39  1  0.00001591  1.93469686  0.76540799  1
  F  F40  1  1.93469686  0.76540799  0.00001591  1
  F  F41  1  0.06530314  1.26540799  1.49998409  1
  F  F42  1  0.56530314  1.23459201  0.50001591  1
  F  F43  1  1.43469686  0.73459201  1.99998409  1
  F  F44  1  1.26540799  1.49998409  0.06530314  1
  F  F45  1  0.76540799  0.00001591  1.93469686  1
  F  F46  1  0.73459201  1.99998409  1.43469686  1
  F  F47  1  1.23459201  0.50001591  0.56530314  1
  Li  Li48  1  0.62500000  0.00000000  0.25000000  1
  Li  Li49  1  0.87500000  0.00000000  0.75000000  1
  Li  Li50  1  0.25000000  0.62500000  -0.00000000  1
  Li  Li51  1  0.75000000  0.87500000  -0.00000000  1
  Li  Li52  1  0.00000000  0.25000000  0.62500000  1
  Li  Li53  1  0.00000000  0.75000000  0.87500000  1
  Li  Li54  1  0.12500000  0.50000000  0.75000000  1
  Li  Li55  1  0.37500000  0.50000000  0.25000000  1
  Li  Li56  1  0.75000000  0.12500000  0.50000000  1
  Li  Li57  1  0.25000000  0.37500000  0.50000000  1
  Li  Li58  1  0.50000000  0.75000000  0.12500000  1
  Li  Li59  1  0.50000000  0.25000000  0.37500000  1
  Li  Li60  1  0.12500000  0.12865305  0.37865305  1
  Li  Li61  1  0.37500000  0.87134695  0.87865305  1
  Li  Li62  1  0.87500000  0.62865305  0.12134695  1
  Li  Li63  1  0.62500000  0.37134695  0.62134695  1
  Li  Li64  1  0.37865305  0.12500000  0.12865305  1
  Li  Li65  1  0.87865305  0.37500000  0.87134695  1
  Li  Li66  1  0.12134695  0.87500000  0.62865305  1
  Li  Li67  1  0.62134695  0.62500000  0.37134695  1
  Li  Li68  1  0.12865305  0.37865305  0.12500000  1
  Li  Li69  1  0.87134695  0.87865305  0.37500000  1
  Li  Li70  1  0.62865305  0.12134695  0.87500000  1
  Li  Li71  1  0.37134695  0.62134695  0.62500000  1
  Li  Li72  1  0.62500000  0.62865305  0.87865305  1
  Li  Li73  1  0.87500000  0.37134695  0.37865305  1
  Li  Li74  1  0.37500000  0.12865305  0.62134695  1
  Li  Li75  1  0.12500000  0.87134695  0.12134695  1
  Li  Li76  1  0.87865305  0.62500000  0.62865305  1
  Li  Li77  1  0.37865305  0.87500000  0.37134695  1
  Li  Li78  1  0.62134695  0.37500000  0.12865305  1
  Li  Li79  1  0.12134695  0.12500000  0.87134695  1
  Li  Li80  1  0.62865305  0.87865305  0.62500000  1
  Li  Li81  1  0.37134695  0.37865305  0.87500000  1
  Li  Li82  1  0.12865305  0.62134695  0.37500000  1
  Li  Li83  1  0.87134695  0.12134695  0.12500000  1
  Li  Li84  1  0.12500000  0.00000000  0.25000000  1
  Li  Li85  1  0.37500000  0.00000000  0.75000000  1
  Li  Li86  1  0.25000000  0.12500000  0.00000000  1
  Li  Li87  1  0.75000000  0.37500000  0.00000000  1
  Li  Li88  1  0.00000000  0.25000000  0.12500000  1
  Li  Li89  1  0.00000000  0.75000000  0.37500000  1
  Li  Li90  1  0.62500000  0.50000000  0.75000000  1
  Li  Li91  1  0.87500000  0.50000000  0.25000000  1
  Li  Li92  1  0.75000000  0.62500000  0.50000000  1
  Li  Li93  1  0.25000000  0.87500000  0.50000000  1
  Li  Li94  1  0.50000000  0.75000000  0.62500000  1
  Li  Li95  1  0.50000000  0.25000000  0.87500000  1
