# generated using pymatgen
data_Li2Y2MoP3Se2
_symmetry_space_group_name_H-M   'P 1'
_cell_length_a   4.60267650
_cell_length_b   4.84706846
_cell_length_c   6.95894511
_cell_angle_alpha   95.44459128
_cell_angle_beta   101.85718790
_cell_angle_gamma   111.86875927
_symmetry_Int_Tables_number   1
_chemical_formula_structural   Li2Y2MoP3Se2
_chemical_formula_sum   'Li2 Y2 Mo1 P3 Se2'
_cell_volume   138.47018596
_cell_formula_units_Z   1
loop_
 _symmetry_equiv_pos_site_id
 _symmetry_equiv_pos_as_xyz
  1  'x, y, z'
loop_
 _atom_site_type_symbol
 _atom_site_label
 _atom_site_symmetry_multiplicity
 _atom_site_fract_x
 _atom_site_fract_y
 _atom_site_fract_z
 _atom_site_occupancy
  Se  Se0  1  0.00000000  0.00000000  0.00000000  1
  Se  Se1  1  0.50000000  0.50000000  0.50000000  1
  Y  Y2  1  0.50000000  0.50000000  0.00000000  1
  Y  Y3  1  0.50000000  0.00000000  0.50000000  1
  P  P4  1  0.00000000  0.50000000  0.50000000  1
  P  P5  1  0.29499266  0.93525328  0.14227669  1
  P  P6  1  0.49447382  0.49023679  0.69065406  1
  Mo  Mo7  1  0.45837669  0.89110445  0.50456761  1
  Li  Li8  1  0.68004678  0.31813961  0.53282031  1
  Li  Li9  1  0.38328029  0.23694538  0.95207672  1
