# generated using pymatgen
data_Li2Y2As3P2
_symmetry_space_group_name_H-M   'P 1'
_cell_length_a   5.54654529
_cell_length_b   5.54337320
_cell_length_c   7.20513292
_cell_angle_alpha   93.77098818
_cell_angle_beta   98.21242828
_cell_angle_gamma   105.14656077
_symmetry_Int_Tables_number   1
_chemical_formula_structural   Li2Y2As3P2
_chemical_formula_sum   'Li2 Y2 As3 P2'
_cell_volume   210.40852229
_cell_formula_units_Z   1
loop_
 _symmetry_equiv_pos_site_id
 _symmetry_equiv_pos_as_xyz
  1  'x, y, z'
loop_
 _atom_site_type_symbol
 _atom_site_label
 _atom_site_symmetry_multiplicity
 _atom_site_fract_x
 _atom_site_fract_y
 _atom_site_fract_z
 _atom_site_occupancy
  P  P0  1  0.00000000  0.00000000  0.00000000  1
  P  P1  1  0.50000000  0.50000000  0.50000000  1
  As  As2  1  0.25000000  0.25000000  0.25000000  1
  As  As3  1  0.75000000  0.25000000  0.00000000  1
  As  As4  1  0.25000000  0.75000000  0.50000000  1
  Li  Li5  1  0.86316453  0.70253175  0.59013481  1
  Li  Li6  1  0.12303945  0.03192851  0.08791448  1
  Y  Y7  1  0.19076248  0.34936783  0.15008383  1
  Y  Y8  1  0.36139175  0.25288691  0.15385271  1
