# generated using pymatgen
data_Li2Y2MoP3Se2
_symmetry_space_group_name_H-M   'P 1'
_cell_length_a   5.02315799
_cell_length_b   5.33973537
_cell_length_c   7.15712895
_cell_angle_alpha   94.76618805
_cell_angle_beta   100.37976670
_cell_angle_gamma   109.14388311
_symmetry_Int_Tables_number   1
_chemical_formula_structural   Li2Y2MoP3Se2
_chemical_formula_sum   'Li2 Y2 Mo1 P3 Se2'
_cell_volume   176.28634059
_cell_formula_units_Z   1
loop_
 _symmetry_equiv_pos_site_id
 _symmetry_equiv_pos_as_xyz
  1  'x, y, z'
loop_
 _atom_site_type_symbol
 _atom_site_label
 _atom_site_symmetry_multiplicity
 _atom_site_fract_x
 _atom_site_fract_y
 _atom_site_fract_z
 _atom_site_occupancy
  Se  Se0  1  0.12500000  0.00000000  0.25000000  1
  Se  Se1  1  0.00000000  0.00000000  0.00000000  1
  P  P2  1  0.37500000  0.00000000  0.25000000  1
  P  P3  1  0.25000000  0.25000000  0.25000000  1
  P  P4  1  0.00000000  0.25000000  0.12500000  1
  Mo  Mo5  1  0.87690474  0.98286714  0.35002389  1
  Li  Li6  1  0.19336503  0.07026318  0.62777091  1
  Li  Li7  1  0.44773560  0.70649896  0.05825956  1
  Y  Y8  1  0.45814565  0.91295810  0.72249103  1
  Y  Y9  1  0.62949767  0.72369206  0.22447186  1
