# generated using pymatgen
data_LiF
_symmetry_space_group_name_H-M   'P 1'
_cell_length_a   10.49182631
_cell_length_b   10.49182631
_cell_length_c   8.02288488
_cell_angle_alpha   90.00000000
_cell_angle_beta   90.00000000
_cell_angle_gamma   90.00000000
_symmetry_Int_Tables_number   1
_chemical_formula_structural   LiF
_chemical_formula_sum   'Li64 F64'
_cell_volume   883.14648591
_cell_formula_units_Z   64
loop_
 _symmetry_equiv_pos_site_id
 _symmetry_equiv_pos_as_xyz
  1  'x, y, z'
loop_
 _atom_site_type_symbol
 _atom_site_label
 _atom_site_symmetry_multiplicity
 _atom_site_fract_x
 _atom_site_fract_y
 _atom_site_fract_z
 _atom_site_occupancy
  F  F0  1  0.00000000  0.00000000  0.00000000  1
  F  F1  1  0.50000000  0.00000000  0.50000000  1
  F  F2  1  0.25000000  0.75000000  0.25000000  1
  F  F3  1  0.25000000  0.25000000  0.75000000  1
  F  F4  1  0.50000000  0.00000000  0.00000000  1
  F  F5  1  0.00000000  0.00000000  0.50000000  1
  F  F6  1  0.25000000  0.75000000  0.75000000  1
  F  F7  1  0.25000000  0.25000000  0.25000000  1
  F  F8  1  0.50000000  0.50000000  0.50000000  1
  F  F9  1  0.00000000  0.50000000  0.00000000  1
  F  F10  1  0.75000000  0.25000000  0.75000000  1
  F  F11  1  0.75000000  0.75000000  0.25000000  1
  F  F12  1  0.00000000  0.50000000  0.50000000  1
  F  F13  1  0.50000000  0.50000000  0.00000000  1
  F  F14  1  0.75000000  0.25000000  0.25000000  1
  F  F15  1  0.75000000  0.75000000  0.75000000  1
  F  F16  1  0.99343592  0.52020489  0.67413557  1
  F  F17  1  0.50656408  0.47979511  0.17413557  1
  F  F18  1  0.72979511  0.74343592  0.92413557  1
  F  F19  1  0.77020489  0.25656408  0.42413557  1
  F  F20  1  0.50656408  0.52020489  0.32586443  1
  F  F21  1  0.99343592  0.47979511  0.82586443  1
  F  F22  1  0.77020489  0.74343592  0.07586443  1
  F  F23  1  0.72979511  0.25656408  0.57586443  1
  F  F24  1  0.00656408  0.47979511  0.32586443  1
  F  F25  1  0.49343592  0.52020489  0.82586443  1
  F  F26  1  0.27020489  0.25656408  0.07586443  1
  F  F27  1  0.22979511  0.74343592  0.57586443  1
  F  F28  1  0.49343592  0.47979511  0.67413557  1
  F  F29  1  0.00656408  0.52020489  0.17413557  1
  F  F30  1  0.22979511  0.25656408  0.92413557  1
  F  F31  1  0.27020489  0.74343592  0.42413557  1
  F  F32  1  0.49343592  0.02020489  0.17413557  1
  F  F33  1  0.00656408  0.97979511  0.67413557  1
  F  F34  1  0.22979511  0.24343592  0.42413557  1
  F  F35  1  0.27020489  0.75656408  0.92413557  1
  F  F36  1  0.00656408  0.02020489  0.82586443  1
  F  F37  1  0.49343592  0.97979511  0.32586443  1
  F  F38  1  0.27020489  0.24343592  0.57586443  1
  F  F39  1  0.22979511  0.75656408  0.07586443  1
  F  F40  1  0.50656408  0.97979511  0.82586443  1
  F  F41  1  0.99343592  0.02020489  0.32586443  1
  F  F42  1  0.77020489  0.75656408  0.57586443  1
  F  F43  1  0.72979511  0.24343592  0.07586443  1
  F  F44  1  0.99343592  0.97979511  0.17413557  1
  F  F45  1  0.50656408  0.02020489  0.67413557  1
  F  F46  1  0.72979511  0.75656408  0.42413557  1
  F  F47  1  0.77020489  0.24343592  0.92413557  1
  F  F48  1  0.53427221  0.00000000  0.25000000  1
  F  F49  1  0.96572779  0.00000000  0.75000000  1
  F  F50  1  0.25000000  0.28427221  0.50000000  1
  F  F51  1  0.25000000  0.71572779  0.00000000  1
  F  F52  1  0.46572779  0.00000000  0.75000000  1
  F  F53  1  0.03427221  0.00000000  0.25000000  1
  F  F54  1  0.75000000  0.71572779  0.50000000  1
  F  F55  1  0.75000000  0.28427221  0.00000000  1
  F  F56  1  0.03427221  0.50000000  0.75000000  1
  F  F57  1  0.46572779  0.50000000  0.25000000  1
  F  F58  1  0.75000000  0.78427221  0.00000000  1
  F  F59  1  0.75000000  0.21572779  0.50000000  1
  F  F60  1  0.96572779  0.50000000  0.25000000  1
  F  F61  1  0.53427221  0.50000000  0.75000000  1
  F  F62  1  0.25000000  0.21572779  -0.00000000  1
  F  F63  1  0.25000000  0.78427221  0.50000000  1
  Li  Li64  1  0.66564764  0.11693905  0.54771785  1
  Li  Li65  1  -0.16564764  -0.11693905  1.04771785  1
  Li  Li66  1  0.13306095  1.41564764  0.79771785  1
  Li  Li67  1  0.36693905  -0.41564764  1.29771785  1
  Li  Li68  1  -0.16564764  0.11693905  -0.54771785  1
  Li  Li69  1  0.66564764  -0.11693905  -0.04771785  1
  Li  Li70  1  0.36693905  1.41564764  0.20228215  1
  Li  Li71  1  0.13306095  -0.41564764  -0.29771785  1
  Li  Li72  1  -0.66564764  -0.11693905  -0.54771785  1
  Li  Li73  1  1.16564764  0.11693905  -0.04771785  1
  Li  Li74  1  0.86693905  -0.41564764  0.20228215  1
  Li  Li75  1  0.63306095  1.41564764  -0.29771785  1
  Li  Li76  1  1.16564764  -0.11693905  0.54771785  1
  Li  Li77  1  -0.66564764  0.11693905  1.04771785  1
  Li  Li78  1  0.63306095  -0.41564764  0.79771785  1
  Li  Li79  1  0.86693905  1.41564764  1.29771785  1
  Li  Li80  1  1.16564764  0.61693905  1.04771785  1
  Li  Li81  1  0.33435236  0.38306095  1.54771785  1
  Li  Li82  1  0.63306095  1.91564764  1.29771785  1
  Li  Li83  1  0.86693905  0.08435236  1.79771785  1
  Li  Li84  1  0.33435236  0.61693905  -0.04771785  1
  Li  Li85  1  1.16564764  0.38306095  0.45228215  1
  Li  Li86  1  0.86693905  1.91564764  0.70228215  1
  Li  Li87  1  0.63306095  0.08435236  0.20228215  1
  Li  Li88  1  -0.16564764  0.38306095  -0.04771785  1
  Li  Li89  1  1.66564764  0.61693905  0.45228215  1
  Li  Li90  1  1.36693905  0.08435236  0.70228215  1
  Li  Li91  1  1.13306095  1.91564764  0.20228215  1
  Li  Li92  1  1.66564764  0.38306095  1.04771785  1
  Li  Li93  1  -0.16564764  0.61693905  1.54771785  1
  Li  Li94  1  1.13306095  0.08435236  1.29771785  1
  Li  Li95  1  1.36693905  1.91564764  1.79771785  1
  Li  Li96  1  0.19793474  0.82189532  0.76026185  1
  Li  Li97  1  0.30206526  0.17810468  0.26026185  1
  Li  Li98  1  0.42810468  0.94793474  0.01026185  1
  Li  Li99  1  0.07189532  0.05206526  0.51026185  1
  Li  Li100  1  0.30206526  0.82189532  0.23973815  1
  Li  Li101  1  0.19793474  0.17810468  0.73973815  1
  Li  Li102  1  0.07189532  0.94793474  0.98973815  1
  Li  Li103  1  0.42810468  0.05206526  0.48973815  1
  Li  Li104  1  0.80206526  0.17810468  0.23973815  1
  Li  Li105  1  0.69793474  0.82189532  0.73973815  1
  Li  Li106  1  0.57189532  0.05206526  0.98973815  1
  Li  Li107  1  0.92810468  0.94793474  0.48973815  1
  Li  Li108  1  0.69793474  0.17810468  0.76026185  1
  Li  Li109  1  0.80206526  0.82189532  0.26026185  1
  Li  Li110  1  0.92810468  0.05206526  0.01026185  1
  Li  Li111  1  0.57189532  0.94793474  0.51026185  1
  Li  Li112  1  0.69793474  0.32189532  0.26026185  1
  Li  Li113  1  0.80206526  0.67810468  0.76026185  1
  Li  Li114  1  0.92810468  0.44793474  0.51026185  1
  Li  Li115  1  0.57189532  0.55206526  0.01026185  1
  Li  Li116  1  0.80206526  0.32189532  0.73973815  1
  Li  Li117  1  0.69793474  0.67810468  0.23973815  1
  Li  Li118  1  0.57189532  0.44793474  0.48973815  1
  Li  Li119  1  0.92810468  0.55206526  0.98973815  1
  Li  Li120  1  0.30206526  0.67810468  0.73973815  1
  Li  Li121  1  0.19793474  0.32189532  0.23973815  1
  Li  Li122  1  0.07189532  0.55206526  0.48973815  1
  Li  Li123  1  0.42810468  0.44793474  0.98973815  1
  Li  Li124  1  0.19793474  0.67810468  0.26026185  1
  Li  Li125  1  0.30206526  0.32189532  0.76026185  1
  Li  Li126  1  0.42810468  0.55206526  0.51026185  1
  Li  Li127  1  0.07189532  0.44793474  0.01026185  1
