# generated using pymatgen
data_Li2Y2MoP3Se2
_symmetry_space_group_name_H-M   'P 1'
_cell_length_a   5.30355502
_cell_length_b   5.63342948
_cell_length_c   7.29731857
_cell_angle_alpha   94.19980231
_cell_angle_beta   99.14629631
_cell_angle_gamma   106.86893670
_symmetry_Int_Tables_number   1
_chemical_formula_structural   Li2Y2MoP3Se2
_chemical_formula_sum   'Li2 Y2 Mo1 P3 Se2'
_cell_volume   204.33896418
_cell_formula_units_Z   1
loop_
 _symmetry_equiv_pos_site_id
 _symmetry_equiv_pos_as_xyz
  1  'x, y, z'
loop_
 _atom_site_type_symbol
 _atom_site_label
 _atom_site_symmetry_multiplicity
 _atom_site_fract_x
 _atom_site_fract_y
 _atom_site_fract_z
 _atom_site_occupancy
  Se  Se0  1  0.00000000  0.00000000  0.00000000  1
  Se  Se1  1  0.50000000  0.50000000  0.50000000  1
  Y  Y2  1  0.25000000  0.25000000  0.25000000  1
  Y  Y3  1  0.75000000  0.25000000  0.00000000  1
  P  P4  1  0.25000000  0.75000000  0.50000000  1
  P  P5  1  0.72062447  0.41037830  0.28192291  1
  P  P6  1  0.17975377  0.48654803  0.18549995  1
  Mo  Mo7  1  0.70690295  0.07125425  0.76654236  1
  Li  Li8  1  0.84846227  0.44021829  0.08158009  1
  Li  Li9  1  0.04975418  0.83456790  0.12297555  1
