# generated using pymatgen
data_LiYAs2PSe
_symmetry_space_group_name_H-M   'P 1'
_cell_length_a   5.48322180
_cell_length_b   5.53589881
_cell_length_c   6.99537786
_cell_angle_alpha   93.75827172
_cell_angle_beta   97.88474469
_cell_angle_gamma   104.62502042
_symmetry_Int_Tables_number   1
_chemical_formula_structural   LiYAs2PSe
_chemical_formula_sum   'Li2 Y2 As4 P2 Se2'
_cell_volume   202.40424282
_cell_formula_units_Z   2
loop_
 _symmetry_equiv_pos_site_id
 _symmetry_equiv_pos_as_xyz
  1  'x, y, z'
loop_
 _atom_site_type_symbol
 _atom_site_label
 _atom_site_symmetry_multiplicity
 _atom_site_fract_x
 _atom_site_fract_y
 _atom_site_fract_z
 _atom_site_occupancy
  Se  Se0  1  0.12500000  0.00000000  0.25000000  1
  Se  Se1  1  0.00000000  0.00000000  0.00000000  1
  Y  Y2  1  0.37500000  0.00000000  0.25000000  1
  Y  Y3  1  0.25000000  0.25000000  0.25000000  1
  P  P4  1  0.00000000  0.25000000  0.12500000  1
  P  P5  1  0.39709469  0.13249801  0.88345590  1
  As  As6  1  0.44049026  0.66806406  0.79332551  1
  As  As7  1  0.88016622  0.46767678  0.18769058  1
  As  As8  1  0.51976558  0.92794613  0.44032718  1
  As  As9  1  0.13216020  0.16526828  0.13536598  1
  Li  Li10  1  0.66544814  0.35325577  0.44474397  1
  Li  Li11  1  0.80741057  0.36837774  0.68887991  1
