# generated using pymatgen
data_Li4Y2Al(P2Se)2
_symmetry_space_group_name_H-M   'P 1'
_cell_length_a   5.65606738
_cell_length_b   6.00055212
_cell_length_c   7.45334944
_cell_angle_alpha   93.53247186
_cell_angle_beta   97.69298932
_cell_angle_gamma   104.18853551
_symmetry_Int_Tables_number   1
_chemical_formula_structural   Li4Y2Al(P2Se)2
_chemical_formula_sum   'Li4 Y2 Al1 P4 Se2'
_cell_volume   241.86239799
_cell_formula_units_Z   1
loop_
 _symmetry_equiv_pos_site_id
 _symmetry_equiv_pos_as_xyz
  1  'x, y, z'
loop_
 _atom_site_type_symbol
 _atom_site_label
 _atom_site_symmetry_multiplicity
 _atom_site_fract_x
 _atom_site_fract_y
 _atom_site_fract_z
 _atom_site_occupancy
  Al  Al0  1  0.12500000  0.00000000  0.25000000  1
  Se  Se1  1  0.00000000  0.00000000  0.00000000  1
  Se  Se2  1  0.37500000  0.00000000  0.25000000  1
  P  P3  1  0.25000000  0.25000000  0.25000000  1
  P  P4  1  0.00000000  0.25000000  0.12500000  1
  P  P5  1  0.97399884  0.33714444  0.83014014  1
  P  P6  1  0.61875784  0.21391017  0.11653198  1
  Li  Li7  1  0.10715791  0.27320761  0.77913645  1
  Li  Li8  1  0.65307552  0.49440716  0.74075114  1
  Li  Li9  1  0.51563307  0.89215713  0.46150189  1
  Li  Li10  1  0.52445175  0.79476862  0.94845004  1
  Y  Y11  1  0.54872053  0.88794915  0.44838847  1
  Y  Y12  1  0.70597970  0.80191787  0.58259005  1
