# generated using pymatgen
data_Li3Y2P3
_symmetry_space_group_name_H-M   'P 1'
_cell_length_a   5.59963779
_cell_length_b   5.73268184
_cell_length_c   6.97935605
_cell_angle_alpha   92.88599259
_cell_angle_beta   96.69735092
_cell_angle_gamma   102.08966444
_symmetry_Int_Tables_number   1
_chemical_formula_structural   Li3Y2P3
_chemical_formula_sum   'Li3 Y2 P3'
_cell_volume   216.93396930
_cell_formula_units_Z   1
loop_
 _symmetry_equiv_pos_site_id
 _symmetry_equiv_pos_as_xyz
  1  'x, y, z'
loop_
 _atom_site_type_symbol
 _atom_site_label
 _atom_site_symmetry_multiplicity
 _atom_site_fract_x
 _atom_site_fract_y
 _atom_site_fract_z
 _atom_site_occupancy
  Y  Y0  1  0.00000000  0.00000000  0.00000000  1
  Y  Y1  1  0.50000000  0.50000000  0.50000000  1
  P  P2  1  0.25000000  0.25000000  0.25000000  1
  P  P3  1  0.75000000  0.25000000  0.00000000  1
  P  P4  1  0.25000000  0.75000000  0.50000000  1
  Li  Li5  1  0.64445738  0.01524707  0.50804520  1
  Li  Li6  1  0.85504276  0.98994996  0.37482017  1
  Li  Li7  1  0.18361747  0.16742409  0.55917685  1
