# generated using pymatgen
data_Li4TeF2
_symmetry_space_group_name_H-M   'P 1'
_cell_length_a   14.63734830
_cell_length_b   14.63734830
_cell_length_c   14.77162397
_cell_angle_alpha   90.00000000
_cell_angle_beta   90.00000000
_cell_angle_gamma   120.00000000
_symmetry_Int_Tables_number   1
_chemical_formula_structural   Li4TeF2
_chemical_formula_sum   'Li96 Te24 F48'
_cell_volume   2740.84003581
_cell_formula_units_Z   24
loop_
 _symmetry_equiv_pos_site_id
 _symmetry_equiv_pos_as_xyz
  1  'x, y, z'
loop_
 _atom_site_type_symbol
 _atom_site_label
 _atom_site_symmetry_multiplicity
 _atom_site_fract_x
 _atom_site_fract_y
 _atom_site_fract_z
 _atom_site_occupancy
  F  F0  1  0.90196721  0.36072957  0.18129494  1
  F  F1  1  -0.36072957  0.54123764  0.18129494  1
  F  F2  1  -0.54123764  -0.90196721  0.18129494  1
  F  F3  1  0.36072957  0.90196721  0.31870506  1
  F  F4  1  0.54123764  -0.36072957  0.31870506  1
  F  F5  1  -0.90196721  -0.54123764  0.31870506  1
  F  F6  1  -0.90196721  -0.36072957  -0.18129494  1
  F  F7  1  0.36072957  -0.54123764  -0.18129494  1
  F  F8  1  0.54123764  0.90196721  -0.18129494  1
  F  F9  1  -0.36072957  -0.90196721  0.68129494  1
  F  F10  1  -0.54123764  0.36072957  0.68129494  1
  F  F11  1  0.90196721  0.54123764  0.68129494  1
  F  F12  1  1.56863388  0.69406290  0.51462827  1
  F  F13  1  0.30593710  0.87457098  0.51462827  1
  F  F14  1  0.12542902  -0.56863388  0.51462827  1
  F  F15  1  1.02739624  1.23530055  0.65203840  1
  F  F16  1  1.20790431  -0.02739624  0.65203840  1
  F  F17  1  -0.23530055  -0.20790431  0.65203840  1
  F  F18  1  -0.23530055  -0.02739624  0.15203840  1
  F  F19  1  1.02739624  -0.20790431  0.15203840  1
  F  F20  1  1.20790431  1.23530055  0.15203840  1
  F  F21  1  0.30593710  -0.56863388  1.01462827  1
  F  F22  1  0.12542902  0.69406290  1.01462827  1
  F  F23  1  1.56863388  0.87457098  1.01462827  1
  F  F24  1  1.23530055  1.02739624  0.84796160  1
  F  F25  1  -0.02739624  1.20790431  0.84796160  1
  F  F26  1  -0.20790431  -0.23530055  0.84796160  1
  F  F27  1  0.69406290  1.56863388  0.98537173  1
  F  F28  1  0.87457098  0.30593710  0.98537173  1
  F  F29  1  -0.56863388  0.12542902  0.98537173  1
  F  F30  1  -0.56863388  0.30593710  0.48537173  1
  F  F31  1  0.69406290  0.12542902  0.48537173  1
  F  F32  1  0.87457098  1.56863388  0.48537173  1
  F  F33  1  -0.02739624  -0.23530055  1.34796160  1
  F  F34  1  -0.20790431  1.02739624  1.34796160  1
  F  F35  1  1.23530055  1.20790431  1.34796160  1
  F  F36  1  0.00000000  0.00000000  0.18661466  1
  F  F37  1  0.00000000  0.00000000  0.31338534  1
  F  F38  1  0.00000000  0.00000000  0.81338534  1
  F  F39  1  0.00000000  0.00000000  0.68661466  1
  F  F40  1  0.66666667  0.33333333  0.51994799  1
  F  F41  1  0.66666667  0.33333333  0.64671867  1
  F  F42  1  0.66666667  0.33333333  0.14671867  1
  F  F43  1  0.66666667  0.33333333  0.01994799  1
  F  F44  1  0.33333333  0.66666667  0.85328133  1
  F  F45  1  0.33333333  0.66666667  0.98005201  1
  F  F46  1  0.33333333  0.66666667  0.48005201  1
  F  F47  1  0.33333333  0.66666667  0.35328133  1
  Li  Li48  1  0.46059439  0.00000000  0.25000000  1
  Li  Li49  1  0.00000000  0.46059439  0.25000000  1
  Li  Li50  1  0.53940561  0.53940561  0.25000000  1
  Li  Li51  1  0.53940561  -0.00000000  0.75000000  1
  Li  Li52  1  0.00000000  0.53940561  0.75000000  1
  Li  Li53  1  0.46059439  0.46059439  0.75000000  1
  Li  Li54  1  0.12726106  0.33333333  0.58333333  1
  Li  Li55  1  0.66666667  0.79392773  0.58333333  1
  Li  Li56  1  0.20607227  0.87273894  0.58333333  1
  Li  Li57  1  0.20607227  0.33333333  0.08333333  1
  Li  Li58  1  0.66666667  0.87273894  0.08333333  1
  Li  Li59  1  0.12726106  0.79392773  0.08333333  1
  Li  Li60  1  0.79392773  0.66666667  0.91666667  1
  Li  Li61  1  0.33333333  0.12726106  0.91666667  1
  Li  Li62  1  0.87273894  0.20607227  0.91666667  1
  Li  Li63  1  0.87273894  0.66666667  0.41666667  1
  Li  Li64  1  0.33333333  0.20607227  0.41666667  1
  Li  Li65  1  0.79392773  0.12726106  0.41666667  1
  Li  Li66  1  0.00000000  0.00000000  0.25000000  1
  Li  Li67  1  0.00000000  0.00000000  0.75000000  1
  Li  Li68  1  0.66666667  0.33333333  0.58333333  1
  Li  Li69  1  0.66666667  0.33333333  0.08333333  1
  Li  Li70  1  0.33333333  0.66666667  0.91666667  1
  Li  Li71  1  0.33333333  0.66666667  0.41666667  1
  Li  Li72  1  0.79748025  0.26836369  0.70724467  1
  Li  Li73  1  0.73163631  0.52911656  0.70724467  1
  Li  Li74  1  0.47088344  0.20251975  0.70724467  1
  Li  Li75  1  0.26836369  0.79748025  0.79275533  1
  Li  Li76  1  0.52911656  0.73163631  0.79275533  1
  Li  Li77  1  0.20251975  0.47088344  0.79275533  1
  Li  Li78  1  0.20251975  0.73163631  0.29275533  1
  Li  Li79  1  0.26836369  0.47088344  0.29275533  1
  Li  Li80  1  0.52911656  0.79748025  0.29275533  1
  Li  Li81  1  0.73163631  0.20251975  0.20724467  1
  Li  Li82  1  0.47088344  0.26836369  0.20724467  1
  Li  Li83  1  0.79748025  0.52911656  0.20724467  1
  Li  Li84  1  0.46414691  0.60169702  0.04057800  1
  Li  Li85  1  0.39830298  0.86244989  0.04057800  1
  Li  Li86  1  0.13755011  0.53585309  0.04057800  1
  Li  Li87  1  0.93503035  0.13081358  0.12608866  1
  Li  Li88  1  0.19578322  0.06496965  0.12608866  1
  Li  Li89  1  0.86918642  0.80421678  0.12608866  1
  Li  Li90  1  0.86918642  0.06496965  0.62608866  1
  Li  Li91  1  0.93503035  0.80421678  0.62608866  1
  Li  Li92  1  0.19578322  0.13081358  0.62608866  1
  Li  Li93  1  0.39830298  0.53585309  0.54057800  1
  Li  Li94  1  0.13755011  0.60169702  0.54057800  1
  Li  Li95  1  0.46414691  0.86244989  0.54057800  1
  Li  Li96  1  0.13081358  0.93503035  0.37391134  1
  Li  Li97  1  0.06496965  0.19578322  0.37391134  1
  Li  Li98  1  0.80421678  0.86918642  0.37391134  1
  Li  Li99  1  0.60169702  0.46414691  0.45942200  1
  Li  Li100  1  0.86244989  0.39830298  0.45942200  1
  Li  Li101  1  0.53585309  0.13755011  0.45942200  1
  Li  Li102  1  0.53585309  0.39830298  0.95942200  1
  Li  Li103  1  0.60169702  0.13755011  0.95942200  1
  Li  Li104  1  0.86244989  0.46414691  0.95942200  1
  Li  Li105  1  0.06496965  0.86918642  0.87391134  1
  Li  Li106  1  0.80421678  0.93503035  0.87391134  1
  Li  Li107  1  0.13081358  0.19578322  0.87391134  1
  Li  Li108  1  0.50000000  0.00000000  -0.00000000  1
  Li  Li109  1  0.00000000  0.50000000  0.00000000  1
  Li  Li110  1  0.50000000  0.50000000  -0.00000000  1
  Li  Li111  1  0.00000000  0.50000000  0.50000000  1
  Li  Li112  1  0.50000000  0.00000000  0.50000000  1
  Li  Li113  1  0.50000000  0.50000000  0.50000000  1
  Li  Li114  1  0.16666667  0.33333333  0.33333333  1
  Li  Li115  1  0.66666667  0.83333333  0.33333333  1
  Li  Li116  1  0.16666667  0.83333333  0.33333333  1
  Li  Li117  1  0.66666667  0.83333333  0.83333333  1
  Li  Li118  1  0.16666667  0.33333333  0.83333333  1
  Li  Li119  1  0.16666667  0.83333333  0.83333333  1
  Li  Li120  1  0.83333333  0.66666667  0.66666667  1
  Li  Li121  1  0.33333333  0.16666667  0.66666667  1
  Li  Li122  1  0.83333333  0.16666667  0.66666667  1
  Li  Li123  1  0.33333333  0.16666667  0.16666667  1
  Li  Li124  1  0.83333333  0.66666667  0.16666667  1
  Li  Li125  1  0.83333333  0.16666667  0.16666667  1
  Li  Li126  1  0.25423883  0.00000000  0.25000000  1
  Li  Li127  1  0.00000000  0.25423883  0.25000000  1
  Li  Li128  1  0.74576117  0.74576117  0.25000000  1
  Li  Li129  1  0.74576117  0.00000000  0.75000000  1
  Li  Li130  1  0.00000000  0.74576117  0.75000000  1
  Li  Li131  1  0.25423883  0.25423883  0.75000000  1
  Li  Li132  1  0.92090550  0.33333333  0.58333333  1
  Li  Li133  1  0.66666667  0.58757216  0.58333333  1
  Li  Li134  1  0.41242784  0.07909450  0.58333333  1
  Li  Li135  1  0.41242784  0.33333333  0.08333333  1
  Li  Li136  1  0.66666667  0.07909450  0.08333333  1
  Li  Li137  1  0.92090550  0.58757216  0.08333333  1
  Li  Li138  1  0.58757216  0.66666667  0.91666667  1
  Li  Li139  1  0.33333333  0.92090550  0.91666667  1
  Li  Li140  1  0.07909450  0.41242784  0.91666667  1
  Li  Li141  1  0.07909450  0.66666667  0.41666667  1
  Li  Li142  1  0.33333333  0.41242784  0.41666667  1
  Li  Li143  1  0.58757216  0.92090550  0.41666667  1
  Te  Te144  1  0.80413395  0.00000000  0.25000000  1
  Te  Te145  1  0.00000000  0.80413395  0.25000000  1
  Te  Te146  1  0.19586605  0.19586605  0.25000000  1
  Te  Te147  1  0.19586605  0.00000000  0.75000000  1
  Te  Te148  1  0.00000000  0.19586605  0.75000000  1
  Te  Te149  1  0.80413395  0.80413395  0.75000000  1
  Te  Te150  1  0.47080062  0.33333333  0.58333333  1
  Te  Te151  1  0.66666667  0.13746728  0.58333333  1
  Te  Te152  1  0.86253272  0.52919938  0.58333333  1
  Te  Te153  1  0.86253272  0.33333333  0.08333333  1
  Te  Te154  1  0.66666667  0.52919938  0.08333333  1
  Te  Te155  1  0.47080062  0.13746728  0.08333333  1
  Te  Te156  1  0.13746728  0.66666667  0.91666667  1
  Te  Te157  1  0.33333333  0.47080062  0.91666667  1
  Te  Te158  1  0.52919938  0.86253272  0.91666667  1
  Te  Te159  1  0.52919938  0.66666667  0.41666667  1
  Te  Te160  1  0.33333333  0.86253272  0.41666667  1
  Te  Te161  1  0.13746728  0.47080062  0.41666667  1
  Te  Te162  1  0.00000000  0.00000000  0.00000000  1
  Te  Te163  1  0.00000000  0.00000000  0.50000000  1
  Te  Te164  1  0.66666667  0.33333333  0.33333333  1
  Te  Te165  1  0.66666667  0.33333333  0.83333333  1
  Te  Te166  1  0.33333333  0.66666667  0.66666667  1
  Te  Te167  1  0.33333333  0.66666667  0.16666667  1
