# generated using pymatgen
data_LiCaF3
_symmetry_space_group_name_H-M   'P 1'
_cell_length_a   11.33939652
_cell_length_b   11.33939652
_cell_length_c   13.73020129
_cell_angle_alpha   90.00000000
_cell_angle_beta   90.00000000
_cell_angle_gamma   120.00000000
_symmetry_Int_Tables_number   1
_chemical_formula_structural   LiCaF3
_chemical_formula_sum   'Li18 Ca18 F54'
_cell_volume   1528.92935898
_cell_formula_units_Z   18
loop_
 _symmetry_equiv_pos_site_id
 _symmetry_equiv_pos_as_xyz
  1  'x, y, z'
loop_
 _atom_site_type_symbol
 _atom_site_label
 _atom_site_symmetry_multiplicity
 _atom_site_fract_x
 _atom_site_fract_y
 _atom_site_fract_z
 _atom_site_occupancy
  Ca  Ca0  1  0.50000000  0.00000000  -0.00000000  1
  Ca  Ca1  1  0.00000000  0.50000000  0.00000000  1
  Ca  Ca2  1  0.50000000  0.50000000  0.00000000  1
  Ca  Ca3  1  0.00000000  0.50000000  0.50000000  1
  Ca  Ca4  1  0.50000000  0.00000000  0.50000000  1
  Ca  Ca5  1  0.50000000  0.50000000  0.50000000  1
  Ca  Ca6  1  0.16666667  0.33333333  0.33333333  1
  Ca  Ca7  1  0.66666667  0.83333333  0.33333333  1
  Ca  Ca8  1  0.16666667  0.83333333  0.33333333  1
  Ca  Ca9  1  0.66666667  0.83333333  0.83333333  1
  Ca  Ca10  1  0.16666667  0.33333333  0.83333333  1
  Ca  Ca11  1  0.16666667  0.83333333  0.83333333  1
  Ca  Ca12  1  0.83333333  0.66666667  0.66666667  1
  Ca  Ca13  1  0.33333333  0.16666667  0.66666667  1
  Ca  Ca14  1  0.83333333  0.16666667  0.66666667  1
  Ca  Ca15  1  0.33333333  0.16666667  0.16666667  1
  Ca  Ca16  1  0.83333333  0.66666667  0.16666667  1
  Ca  Ca17  1  0.83333333  0.16666667  0.16666667  1
  F  F18  1  0.41598419  0.65633379  0.12408231  1
  F  F19  1  -0.65633379  -0.24034961  0.12408231  1
  F  F20  1  0.24034961  -0.41598419  0.12408231  1
  F  F21  1  0.65633379  0.41598419  0.37591769  1
  F  F22  1  -0.24034961  -0.65633379  0.37591769  1
  F  F23  1  -0.41598419  0.24034961  0.37591769  1
  F  F24  1  -0.41598419  -0.65633379  -0.12408231  1
  F  F25  1  0.65633379  0.24034961  -0.12408231  1
  F  F26  1  -0.24034961  0.41598419  -0.12408231  1
  F  F27  1  -0.65633379  -0.41598419  0.62408231  1
  F  F28  1  0.24034961  0.65633379  0.62408231  1
  F  F29  1  0.41598419  -0.24034961  0.62408231  1
  F  F30  1  1.08265085  0.98966713  0.45741565  1
  F  F31  1  0.01033287  0.09298373  0.45741565  1
  F  F32  1  0.90701627  -0.08265085  0.45741565  1
  F  F33  1  1.32300046  0.74931752  0.70925102  1
  F  F34  1  0.42631706  -0.32300046  0.70925102  1
  F  F35  1  0.25068248  0.57368294  0.70925102  1
  F  F36  1  0.25068248  -0.32300046  0.20925102  1
  F  F37  1  1.32300046  0.57368294  0.20925102  1
  F  F38  1  0.42631706  0.74931752  0.20925102  1
  F  F39  1  0.01033287  -0.08265085  0.95741565  1
  F  F40  1  0.90701627  0.98966713  0.95741565  1
  F  F41  1  1.08265085  0.09298373  0.95741565  1
  F  F42  1  0.74931752  1.32300046  0.79074898  1
  F  F43  1  -0.32300046  0.42631706  0.79074898  1
  F  F44  1  0.57368294  0.25068248  0.79074898  1
  F  F45  1  0.98966713  1.08265085  1.04258435  1
  F  F46  1  0.09298373  0.01033287  1.04258435  1
  F  F47  1  -0.08265085  0.90701627  1.04258435  1
  F  F48  1  -0.08265085  0.01033287  0.54258435  1
  F  F49  1  0.98966713  0.90701627  0.54258435  1
  F  F50  1  0.09298373  1.08265085  0.54258435  1
  F  F51  1  -0.32300046  0.25068248  1.29074898  1
  F  F52  1  0.57368294  1.32300046  1.29074898  1
  F  F53  1  0.74931752  0.42631706  1.29074898  1
  F  F54  1  0.12080531  -0.00000000  0.25000000  1
  F  F55  1  0.00000000  0.12080531  0.25000000  1
  F  F56  1  0.87919469  0.87919469  0.25000000  1
  F  F57  1  0.87919469  0.00000000  0.75000000  1
  F  F58  1  0.00000000  0.87919469  0.75000000  1
  F  F59  1  0.12080531  0.12080531  0.75000000  1
  F  F60  1  0.78747197  0.33333333  0.58333333  1
  F  F61  1  0.66666667  0.45413864  0.58333333  1
  F  F62  1  0.54586136  0.21252803  0.58333333  1
  F  F63  1  0.54586136  0.33333333  0.08333333  1
  F  F64  1  0.66666667  0.21252803  0.08333333  1
  F  F65  1  0.78747197  0.45413864  0.08333333  1
  F  F66  1  0.45413864  0.66666667  0.91666667  1
  F  F67  1  0.33333333  0.78747197  0.91666667  1
  F  F68  1  0.21252803  0.54586136  0.91666667  1
  F  F69  1  0.21252803  0.66666667  0.41666667  1
  F  F70  1  0.33333333  0.54586136  0.41666667  1
  F  F71  1  0.45413864  0.78747197  0.41666667  1
  Li  Li72  1  0.91287678  -0.00000000  0.25000000  1
  Li  Li73  1  0.00000000  0.91287678  0.25000000  1
  Li  Li74  1  0.08712322  0.08712322  0.25000000  1
  Li  Li75  1  0.08712322  0.00000000  0.75000000  1
  Li  Li76  1  0.00000000  0.08712322  0.75000000  1
  Li  Li77  1  0.91287678  0.91287678  0.75000000  1
  Li  Li78  1  0.57954345  0.33333333  0.58333333  1
  Li  Li79  1  0.66666667  0.24621011  0.58333333  1
  Li  Li80  1  0.75378989  0.42045655  0.58333333  1
  Li  Li81  1  0.75378989  0.33333333  0.08333333  1
  Li  Li82  1  0.66666667  0.42045655  0.08333333  1
  Li  Li83  1  0.57954345  0.24621011  0.08333333  1
  Li  Li84  1  0.24621011  0.66666667  0.91666667  1
  Li  Li85  1  0.33333333  0.57954345  0.91666667  1
  Li  Li86  1  0.42045655  0.75378989  0.91666667  1
  Li  Li87  1  0.42045655  0.66666667  0.41666667  1
  Li  Li88  1  0.33333333  0.75378989  0.41666667  1
  Li  Li89  1  0.24621011  0.57954345  0.41666667  1
