# generated using pymatgen
data_LiF
_symmetry_space_group_name_H-M   'P 1'
_cell_length_a   10.34877525
_cell_length_b   10.34877525
_cell_length_c   3.25200176
_cell_angle_alpha   90.00000000
_cell_angle_beta   90.00000000
_cell_angle_gamma   120.00000000
_symmetry_Int_Tables_number   1
_chemical_formula_structural   LiF
_chemical_formula_sum   'Li13 F13'
_cell_volume   301.61942933
_cell_formula_units_Z   13
loop_
 _symmetry_equiv_pos_site_id
 _symmetry_equiv_pos_as_xyz
  1  'x, y, z'
loop_
 _atom_site_type_symbol
 _atom_site_label
 _atom_site_symmetry_multiplicity
 _atom_site_fract_x
 _atom_site_fract_y
 _atom_site_fract_z
 _atom_site_occupancy
  F  F0  1  0.56803775  0.55405953  0.16908433  1
  F  F1  1  0.44594047  0.01397822  0.16908433  1
  F  F2  1  0.98602178  0.43196225  0.16908433  1
  F  F3  1  0.44594047  0.43196225  0.83091567  1
  F  F4  1  0.98602178  0.55405953  0.83091567  1
  F  F5  1  0.56803775  0.01397822  0.83091567  1
  F  F6  1  0.54599558  0.14366695  0.83444379  1
  F  F7  1  0.85633305  0.40232863  0.83444379  1
  F  F8  1  0.59767137  0.45400442  0.83444379  1
  F  F9  1  0.85633305  0.45400442  0.16555621  1
  F  F10  1  0.59767137  0.14366695  0.16555621  1
  F  F11  1  0.54599558  0.40232863  0.16555621  1
  F  F12  1  0.00000000  0.00000000  0.50000000  1
  Li  Li13  1  0.18628740  0.90970787  0.62908168  1
  Li  Li14  1  -0.90970787  -0.72342047  0.62908168  1
  Li  Li15  1  0.72342047  -0.18628740  0.62908168  1
  Li  Li16  1  -0.90970787  -0.18628740  -0.62908168  1
  Li  Li17  1  0.72342047  0.90970787  -0.62908168  1
  Li  Li18  1  0.18628740  -0.72342047  -0.62908168  1
  Li  Li19  1  0.33333333  0.66666667  0.50000000  1
  Li  Li20  1  0.66666667  0.33333333  0.50000000  1
  Li  Li21  1  0.43112269  0.56887731  0.50000000  1
  Li  Li22  1  0.43112269  0.86224538  0.50000000  1
  Li  Li23  1  0.13775462  0.56887731  0.50000000  1
  Li  Li24  1  0.33333333  0.66666667  0.00000000  1
  Li  Li25  1  0.00000000  0.00000000  0.00000000  1
