# generated using pymatgen
data_Li5CaSeF5
_symmetry_space_group_name_H-M   'P 1'
_cell_length_a   9.99500770
_cell_length_b   8.51025651
_cell_length_c   11.37078092
_cell_angle_alpha   90.00000000
_cell_angle_beta   90.00000000
_cell_angle_gamma   90.00000000
_symmetry_Int_Tables_number   1
_chemical_formula_structural   Li5CaSeF5
_chemical_formula_sum   'Li20 Ca4 Se4 F20'
_cell_volume   967.19952803
_cell_formula_units_Z   4
loop_
 _symmetry_equiv_pos_site_id
 _symmetry_equiv_pos_as_xyz
  1  'x, y, z'
loop_
 _atom_site_type_symbol
 _atom_site_label
 _atom_site_symmetry_multiplicity
 _atom_site_fract_x
 _atom_site_fract_y
 _atom_site_fract_z
 _atom_site_occupancy
  Ca  Ca0  1  0.00000000  0.00000000  0.50000000  1
  Ca  Ca1  1  0.50000000  0.00000000  -0.00000000  1
  Ca  Ca2  1  0.00000000  0.50000000  0.50000000  1
  Ca  Ca3  1  0.50000000  0.50000000  -0.00000000  1
  F  F4  1  0.28393595  0.25000000  0.90775758  1
  F  F5  1  0.21606405  0.75000000  0.40775758  1
  F  F6  1  0.71606405  0.75000000  0.09224242  1
  F  F7  1  0.78393595  0.25000000  0.59224242  1
  F  F8  1  0.24586621  0.11538933  0.08043630  1
  F  F9  1  0.25413379  -0.11538933  0.58043630  1
  F  F10  1  -0.24586621  0.61538933  -0.08043630  1
  F  F11  1  0.74586621  0.38461067  0.41956370  1
  F  F12  1  -0.24586621  -0.11538933  -0.08043630  1
  F  F13  1  0.74586621  0.11538933  0.41956370  1
  F  F14  1  0.24586621  0.38461067  0.08043630  1
  F  F15  1  0.25413379  0.61538933  0.58043630  1
  F  F16  1  0.20951209  0.49741081  0.61176490  1
  F  F17  1  0.29048791  0.50258919  0.11176490  1
  F  F18  1  0.79048791  0.99741081  0.38823510  1
  F  F19  1  0.70951209  0.00258919  0.88823510  1
  F  F20  1  0.79048791  0.50258919  0.38823510  1
  F  F21  1  0.70951209  0.49741081  0.88823510  1
  F  F22  1  0.20951209  0.00258919  0.61176490  1
  F  F23  1  0.29048791  0.99741081  0.11176490  1
  Li  Li24  1  0.00000000  0.00000000  0.00000000  1
  Li  Li25  1  0.50000000  0.00000000  0.50000000  1
  Li  Li26  1  0.00000000  0.50000000  0.00000000  1
  Li  Li27  1  0.50000000  0.50000000  0.50000000  1
  Li  Li28  1  0.63601782  0.25000000  0.63537539  1
  Li  Li29  1  0.86398218  0.75000000  0.13537539  1
  Li  Li30  1  0.36398218  0.75000000  0.36462461  1
  Li  Li31  1  0.13601782  0.25000000  0.86462461  1
  Li  Li32  1  0.53874134  0.25000000  0.54385030  1
  Li  Li33  1  0.96125866  0.75000000  0.04385030  1
  Li  Li34  1  0.46125866  0.75000000  0.45614970  1
  Li  Li35  1  0.03874134  0.25000000  0.95614970  1
  Li  Li36  1  0.92193103  0.25000000  0.00484617  1
  Li  Li37  1  0.57806897  0.75000000  0.50484617  1
  Li  Li38  1  0.07806897  0.75000000  0.99515383  1
  Li  Li39  1  0.42193103  0.25000000  0.49515383  1
  Li  Li40  1  0.70114247  0.25000000  0.03245926  1
  Li  Li41  1  0.79885753  0.75000000  0.53245926  1
  Li  Li42  1  0.29885753  0.75000000  0.96754074  1
  Li  Li43  1  0.20114247  0.25000000  0.46754074  1
  Se  Se44  1  0.65167617  0.25000000  0.78388416  1
  Se  Se45  1  0.84832383  0.75000000  0.28388416  1
  Se  Se46  1  0.34832383  0.75000000  0.21611584  1
  Se  Se47  1  0.15167617  0.25000000  0.71611584  1
