# generated using pymatgen
data_LiF
_symmetry_space_group_name_H-M   'P 1'
_cell_length_a   6.17516718
_cell_length_b   6.17516718
_cell_length_c   22.61873261
_cell_angle_alpha   90.00000000
_cell_angle_beta   90.00000000
_cell_angle_gamma   120.00000000
_symmetry_Int_Tables_number   1
_chemical_formula_structural   LiF
_chemical_formula_sum   'Li23 F23'
_cell_volume   746.95826639
_cell_formula_units_Z   23
loop_
 _symmetry_equiv_pos_site_id
 _symmetry_equiv_pos_as_xyz
  1  'x, y, z'
loop_
 _atom_site_type_symbol
 _atom_site_label
 _atom_site_symmetry_multiplicity
 _atom_site_fract_x
 _atom_site_fract_y
 _atom_site_fract_z
 _atom_site_occupancy
  F  F0  1  0.33333333  0.66666667  -0.00000000  1
  F  F1  1  0.04911429  0.37803868  0.53702103  1
  F  F2  1  0.62196132  0.67107561  0.53702103  1
  F  F3  1  0.32892439  0.95088571  0.53702103  1
  F  F4  1  0.62196132  0.95088571  0.46297897  1
  F  F5  1  0.32892439  0.37803868  0.46297897  1
  F  F6  1  0.04911429  0.67107561  0.46297897  1
  F  F7  1  0.28811944  0.44532085  0.15751749  1
  F  F8  1  0.55467915  0.84279858  0.15751749  1
  F  F9  1  0.15720142  0.71188056  0.15751749  1
  F  F10  1  0.55467915  0.71188056  0.84248251  1
  F  F11  1  0.15720142  0.44532085  0.84248251  1
  F  F12  1  0.28811944  0.84279858  0.84248251  1
  F  F13  1  0.39997363  0.17084786  0.57088268  1
  F  F14  1  0.82915214  0.22912577  0.57088268  1
  F  F15  1  0.77087423  0.60002637  0.57088268  1
  F  F16  1  0.82915214  0.60002637  0.42911732  1
  F  F17  1  0.77087423  0.17084786  0.42911732  1
  F  F18  1  0.39997363  0.22912577  0.42911732  1
  F  F19  1  0.33333333  0.66666667  0.95218765  1
  F  F20  1  0.33333333  0.66666667  0.04781235  1
  F  F21  1  0.33333333  0.66666667  0.38165026  1
  F  F22  1  0.33333333  0.66666667  0.61834974  1
  Li  Li23  1  0.66666667  0.33333333  0.88460163  1
  Li  Li24  1  0.66666667  0.33333333  0.11539837  1
  Li  Li25  1  0.14765363  0.98089206  0.46947331  1
  Li  Li26  1  -0.98089206  -0.83323843  0.46947331  1
  Li  Li27  1  0.83323843  -0.14765363  0.46947331  1
  Li  Li28  1  -0.98089206  -0.14765363  -0.46947331  1
  Li  Li29  1  0.83323843  0.98089206  -0.46947331  1
  Li  Li30  1  0.14765363  -0.83323843  -0.46947331  1
  Li  Li31  1  0.86083845  0.78443470  0.66769007  1
  Li  Li32  1  0.21556530  0.07640375  0.66769007  1
  Li  Li33  1  0.92359625  0.13916155  0.66769007  1
  Li  Li34  1  0.21556530  0.13916155  0.33230993  1
  Li  Li35  1  0.92359625  0.78443470  0.33230993  1
  Li  Li36  1  0.86083845  0.07640375  0.33230993  1
  Li  Li37  1  0.46657644  0.97008061  0.20604367  1
  Li  Li38  1  0.02991939  0.49649583  0.20604367  1
  Li  Li39  1  0.50350417  0.53342356  0.20604367  1
  Li  Li40  1  0.02991939  0.53342356  0.79395633  1
  Li  Li41  1  0.50350417  0.97008061  0.79395633  1
  Li  Li42  1  0.46657644  0.49649583  0.79395633  1
  Li  Li43  1  0.66666667  0.33333333  0.65117830  1
  Li  Li44  1  0.66666667  0.33333333  0.34882170  1
  Li  Li45  1  0.00000000  0.00000000  0.00000000  1
