# generated using pymatgen
data_Li2Si4Te3F12
_symmetry_space_group_name_H-M   'P 1'
_cell_length_a   7.62266769
_cell_length_b   11.00443715
_cell_length_c   9.28420332
_cell_angle_alpha   90.00000000
_cell_angle_beta   90.00000000
_cell_angle_gamma   90.00000000
_symmetry_Int_Tables_number   1
_chemical_formula_structural   Li2Si4Te3F12
_chemical_formula_sum   'Li8 Si16 Te12 F48'
_cell_volume   778.78838151
_cell_formula_units_Z   4
loop_
 _symmetry_equiv_pos_site_id
 _symmetry_equiv_pos_as_xyz
  1  'x, y, z'
loop_
 _atom_site_type_symbol
 _atom_site_label
 _atom_site_symmetry_multiplicity
 _atom_site_fract_x
 _atom_site_fract_y
 _atom_site_fract_z
 _atom_site_occupancy
  F  F0  1  0.88162735  0.12763581  -0.00000000  1
  F  F1  1  0.11837265  0.87236419  -0.00000000  1
  F  F2  1  0.61837265  0.62763581  0.50000000  1
  F  F3  1  0.38162735  0.37236419  0.50000000  1
  F  F4  1  0.25101991  0.72603811  0.68342781  1
  F  F5  1  0.74898009  0.27396189  0.68342781  1
  F  F6  1  0.24898009  0.22603811  0.81657219  1
  F  F7  1  0.75101991  0.77396189  0.81657219  1
  F  F8  1  0.74898009  0.27396189  0.31657219  1
  F  F9  1  0.25101991  0.72603811  0.31657219  1
  F  F10  1  0.75101991  0.77396189  0.18342781  1
  F  F11  1  0.24898009  0.22603811  0.18342781  1
  F  F12  1  0.00000000  0.00000000  0.50000000  1
  F  F13  1  0.50000000  0.50000000  -0.00000000  1
  F  F14  1  0.17795744  0.31505100  0.55820048  1
  F  F15  1  0.82204256  0.68494900  0.55820048  1
  F  F16  1  0.32204256  0.81505100  0.94179952  1
  F  F17  1  0.67795744  0.18494900  0.94179952  1
  F  F18  1  0.82204256  0.68494900  0.44179952  1
  F  F19  1  0.17795744  0.31505100  0.44179952  1
  F  F20  1  0.67795744  0.18494900  0.05820048  1
  F  F21  1  0.32204256  0.81505100  0.05820048  1
  F  F22  1  0.11571445  0.06987451  0.29594472  1
  F  F23  1  0.88428555  0.93012549  0.29594472  1
  F  F24  1  0.38428555  0.56987451  0.20405528  1
  F  F25  1  0.61571445  0.43012549  0.20405528  1
  F  F26  1  0.88428555  0.93012549  0.70405528  1
  F  F27  1  0.11571445  0.06987451  0.70405528  1
  F  F28  1  0.61571445  0.43012549  0.79594472  1
  F  F29  1  0.38428555  0.56987451  0.79594472  1
  F  F30  1  0.71059493  0.01982961  0.91287739  1
  F  F31  1  0.28940507  0.98017039  0.91287739  1
  F  F32  1  0.78940507  0.51982961  0.58712261  1
  F  F33  1  0.21059493  0.48017039  0.58712261  1
  F  F34  1  0.28940507  0.98017039  0.08712261  1
  F  F35  1  0.71059493  0.01982961  0.08712261  1
  F  F36  1  0.21059493  0.48017039  0.41287739  1
  F  F37  1  0.78940507  0.51982961  0.41287739  1
  F  F38  1  0.05127397  0.28426281  0.43621815  1
  F  F39  1  0.94872603  0.71573719  0.43621815  1
  F  F40  1  0.44872603  0.78426281  0.06378185  1
  F  F41  1  0.55127397  0.21573719  0.06378185  1
  F  F42  1  0.94872603  0.71573719  0.56378185  1
  F  F43  1  0.05127397  0.28426281  0.56378185  1
  F  F44  1  0.55127397  0.21573719  0.93621815  1
  F  F45  1  0.44872603  0.78426281  0.93621815  1
  F  F46  1  0.00000000  0.50000000  0.00000000  1
  F  F47  1  0.50000000  0.00000000  0.50000000  1
  Li  Li48  1  0.94833135  0.12749291  0.24317634  1
  Li  Li49  1  0.05166865  0.87250709  0.24317634  1
  Li  Li50  1  0.55166865  0.62749291  0.25682366  1
  Li  Li51  1  0.44833135  0.37250709  0.25682366  1
  Li  Li52  1  0.05166865  0.87250709  0.75682366  1
  Li  Li53  1  0.94833135  0.12749291  0.75682366  1
  Li  Li54  1  0.44833135  0.37250709  0.74317634  1
  Li  Li55  1  0.55166865  0.62749291  0.74317634  1
  Si  Si56  1  0.48400979  0.05449707  0.41800335  1
  Si  Si57  1  -0.48400979  -0.05449707  0.41800335  1
  Si  Si58  1  0.01599021  0.55449707  0.08199665  1
  Si  Si59  1  0.98400979  0.44550293  0.08199665  1
  Si  Si60  1  -0.48400979  -0.05449707  -0.41800335  1
  Si  Si61  1  0.48400979  0.05449707  -0.41800335  1
  Si  Si62  1  0.98400979  0.44550293  0.91800335  1
  Si  Si63  1  0.01599021  0.55449707  0.91800335  1
  Si  Si64  1  0.00000000  0.00000000  0.00000000  1
  Si  Si65  1  0.50000000  0.50000000  0.50000000  1
  Si  Si66  1  0.98690639  0.64998820  -0.00000000  1
  Si  Si67  1  0.01309361  0.35001180  -0.00000000  1
  Si  Si68  1  0.51309361  0.14998820  0.50000000  1
  Si  Si69  1  0.48690639  0.85001180  0.50000000  1
  Si  Si70  1  0.00000000  0.50000000  0.50000000  1
  Si  Si71  1  0.50000000  0.00000000  -0.00000000  1
  Te  Te72  1  0.50744060  0.60960070  0.00000000  1
  Te  Te73  1  0.49255940  0.39039930  -0.00000000  1
  Te  Te74  1  0.99255940  0.10960070  0.50000000  1
  Te  Te75  1  0.00744060  0.89039930  0.50000000  1
  Te  Te76  1  0.72068141  0.80497707  -0.00000000  1
  Te  Te77  1  0.27931859  0.19502293  0.00000000  1
  Te  Te78  1  0.77931859  0.30497707  0.50000000  1
  Te  Te79  1  0.22068141  0.69502293  0.50000000  1
  Te  Te80  1  0.66537409  0.53244458  -0.00000000  1
  Te  Te81  1  0.33462591  0.46755542  -0.00000000  1
  Te  Te82  1  0.83462591  0.03244458  0.50000000  1
  Te  Te83  1  0.16537409  0.96755542  0.50000000  1
