# generated using pymatgen
data_LiF
_symmetry_space_group_name_H-M   'P 1'
_cell_length_a   10.86715249
_cell_length_b   10.86715249
_cell_length_c   8.39424236
_cell_angle_alpha   90.00000000
_cell_angle_beta   90.00000000
_cell_angle_gamma   90.00000000
_symmetry_Int_Tables_number   1
_chemical_formula_structural   LiF
_chemical_formula_sum   'Li29 F29'
_cell_volume   991.31807892
_cell_formula_units_Z   29
loop_
 _symmetry_equiv_pos_site_id
 _symmetry_equiv_pos_as_xyz
  1  'x, y, z'
loop_
 _atom_site_type_symbol
 _atom_site_label
 _atom_site_symmetry_multiplicity
 _atom_site_fract_x
 _atom_site_fract_y
 _atom_site_fract_z
 _atom_site_occupancy
  F  F0  1  0.86835502  0.20837312  0.04746353  1
  F  F1  1  0.13164498  0.79162688  0.04746353  1
  F  F2  1  0.79162688  0.86835502  0.04746353  1
  F  F3  1  0.20837312  0.13164498  0.04746353  1
  F  F4  1  0.13164498  0.20837312  0.95253647  1
  F  F5  1  0.86835502  0.79162688  0.95253647  1
  F  F6  1  0.20837312  0.86835502  0.95253647  1
  F  F7  1  0.79162688  0.13164498  0.95253647  1
  F  F8  1  0.13164498  0.79162688  0.95253647  1
  F  F9  1  0.86835502  0.20837312  0.95253647  1
  F  F10  1  0.20837312  0.13164498  0.95253647  1
  F  F11  1  0.79162688  0.86835502  0.95253647  1
  F  F12  1  0.86835502  0.79162688  0.04746353  1
  F  F13  1  0.13164498  0.20837312  0.04746353  1
  F  F14  1  0.79162688  0.13164498  0.04746353  1
  F  F15  1  0.20837312  0.86835502  0.04746353  1
  F  F16  1  0.94974649  0.50000000  0.72932036  1
  F  F17  1  0.05025351  0.50000000  0.72932036  1
  F  F18  1  0.50000000  0.94974649  0.72932036  1
  F  F19  1  0.50000000  0.05025351  0.72932036  1
  F  F20  1  0.05025351  0.50000000  0.27067964  1
  F  F21  1  0.94974649  0.50000000  0.27067964  1
  F  F22  1  0.50000000  0.94974649  0.27067964  1
  F  F23  1  0.50000000  0.05025351  0.27067964  1
  F  F24  1  0.31230033  0.00000000  0.00000000  1
  F  F25  1  0.68769967  0.00000000  0.00000000  1
  F  F26  1  0.00000000  0.31230033  0.00000000  1
  F  F27  1  0.00000000  0.68769967  0.00000000  1
  F  F28  1  0.50000000  0.50000000  0.00000000  1
  Li  Li29  1  0.61614358  0.81783683  0.50000000  1
  Li  Li30  1  0.38385642  0.18216317  0.50000000  1
  Li  Li31  1  0.18216317  0.61614358  0.50000000  1
  Li  Li32  1  0.81783683  0.38385642  0.50000000  1
  Li  Li33  1  0.38385642  0.81783683  0.50000000  1
  Li  Li34  1  0.61614358  0.18216317  0.50000000  1
  Li  Li35  1  0.81783683  0.61614358  0.50000000  1
  Li  Li36  1  0.18216317  0.38385642  0.50000000  1
  Li  Li37  1  0.37633182  0.50000000  0.00000000  1
  Li  Li38  1  0.62366818  0.50000000  0.00000000  1
  Li  Li39  1  0.50000000  0.37633182  0.00000000  1
  Li  Li40  1  0.50000000  0.62366818  0.00000000  1
  Li  Li41  1  0.36949938  0.14350089  0.90086157  1
  Li  Li42  1  -0.36949938  -0.14350089  0.90086157  1
  Li  Li43  1  -0.14350089  0.36949938  0.90086157  1
  Li  Li44  1  0.14350089  -0.36949938  0.90086157  1
  Li  Li45  1  -0.36949938  0.14350089  -0.90086157  1
  Li  Li46  1  0.36949938  -0.14350089  -0.90086157  1
  Li  Li47  1  0.14350089  0.36949938  -0.90086157  1
  Li  Li48  1  -0.14350089  -0.36949938  -0.90086157  1
  Li  Li49  1  -0.36949938  -0.14350089  -0.90086157  1
  Li  Li50  1  0.36949938  0.14350089  -0.90086157  1
  Li  Li51  1  0.14350089  -0.36949938  -0.90086157  1
  Li  Li52  1  -0.14350089  0.36949938  -0.90086157  1
  Li  Li53  1  0.36949938  -0.14350089  0.90086157  1
  Li  Li54  1  -0.36949938  0.14350089  0.90086157  1
  Li  Li55  1  -0.14350089  -0.36949938  0.90086157  1
  Li  Li56  1  0.14350089  0.36949938  0.90086157  1
  Li  Li57  1  0.50000000  0.50000000  0.50000000  1
