# generated using pymatgen
data_LiF
_symmetry_space_group_name_H-M   'P 1'
_cell_length_a   5.91930356
_cell_length_b   5.91930356
_cell_length_c   27.64620136
_cell_angle_alpha   90.00000000
_cell_angle_beta   90.00000000
_cell_angle_gamma   120.00000000
_symmetry_Int_Tables_number   1
_chemical_formula_structural   LiF
_chemical_formula_sum   'Li26 F26'
_cell_volume   838.89445571
_cell_formula_units_Z   26
loop_
 _symmetry_equiv_pos_site_id
 _symmetry_equiv_pos_as_xyz
  1  'x, y, z'
loop_
 _atom_site_type_symbol
 _atom_site_label
 _atom_site_symmetry_multiplicity
 _atom_site_fract_x
 _atom_site_fract_y
 _atom_site_fract_z
 _atom_site_occupancy
  F  F0  1  0.48761755  0.65359790  0.81888697  1
  F  F1  1  0.34640210  0.83401964  0.81888697  1
  F  F2  1  0.16598036  0.51238245  0.81888697  1
  F  F3  1  0.34640210  0.51238245  0.18111303  1
  F  F4  1  0.16598036  0.65359790  0.18111303  1
  F  F5  1  0.48761755  0.83401964  0.18111303  1
  F  F6  1  0.95454068  0.86028741  0.53007489  1
  F  F7  1  0.13971259  0.09425327  0.53007489  1
  F  F8  1  0.90574673  0.04545932  0.53007489  1
  F  F9  1  0.13971259  0.04545932  0.46992511  1
  F  F10  1  0.90574673  0.86028741  0.46992511  1
  F  F11  1  0.95454068  0.09425327  0.46992511  1
  F  F12  1  0.33333333  0.66666667  0.50000000  1
  F  F13  1  0.20139708  0.17186202  0.09174662  1
  F  F14  1  0.82813798  0.02953506  0.09174662  1
  F  F15  1  0.97046494  0.79860292  0.09174662  1
  F  F16  1  0.82813798  0.79860292  0.90825338  1
  F  F17  1  0.97046494  0.17186202  0.90825338  1
  F  F18  1  0.20139708  0.02953506  0.90825338  1
  F  F19  1  0.12979068  0.82092696  0.25123252  1
  F  F20  1  0.17907304  0.30886371  0.25123252  1
  F  F21  1  0.69113629  0.87020932  0.25123252  1
  F  F22  1  0.17907304  0.87020932  0.74876748  1
  F  F23  1  0.69113629  0.82092696  0.74876748  1
  F  F24  1  0.12979068  0.30886371  0.74876748  1
  F  F25  1  0.00000000  0.00000000  0.50000000  1
  Li  Li26  1  0.86851506  0.13148494  0.50000000  1
  Li  Li27  1  0.86851506  0.73703013  0.50000000  1
  Li  Li28  1  0.26296987  0.13148494  0.50000000  1
  Li  Li29  1  0.43674210  0.22734302  0.82097823  1
  Li  Li30  1  -0.22734302  0.20939908  0.82097823  1
  Li  Li31  1  -0.20939908  -0.43674210  0.82097823  1
  Li  Li32  1  -0.22734302  -0.43674210  -0.82097823  1
  Li  Li33  1  -0.20939908  0.22734302  -0.82097823  1
  Li  Li34  1  0.43674210  0.20939908  -0.82097823  1
  Li  Li35  1  0.14967144  0.38713328  0.89047450  1
  Li  Li36  1  0.61286672  0.76253817  0.89047450  1
  Li  Li37  1  0.23746183  0.85032856  0.89047450  1
  Li  Li38  1  0.61286672  0.85032856  0.10952550  1
  Li  Li39  1  0.23746183  0.38713328  0.10952550  1
  Li  Li40  1  0.14967144  0.76253817  0.10952550  1
  Li  Li41  1  0.22078011  0.73228564  0.26138087  1
  Li  Li42  1  0.26771436  0.48849446  0.26138087  1
  Li  Li43  1  0.51150554  0.77921989  0.26138087  1
  Li  Li44  1  0.26771436  0.77921989  0.73861913  1
  Li  Li45  1  0.51150554  0.73228564  0.73861913  1
  Li  Li46  1  0.22078011  0.48849446  0.73861913  1
  Li  Li47  1  0.33333333  0.66666667  -0.00000000  1
  Li  Li48  1  0.33333333  0.66666667  0.10466140  1
  Li  Li49  1  0.33333333  0.66666667  0.89533860  1
  Li  Li50  1  0.00000000  0.00000000  0.00000000  1
  Li  Li51  1  0.66666667  0.33333333  0.00000000  1
