# generated using pymatgen
data_Li4TeF2
_symmetry_space_group_name_H-M   'P 1'
_cell_length_a   9.54930805
_cell_length_b   16.39164543
_cell_length_c   14.74372936
_cell_angle_alpha   90.00000000
_cell_angle_beta   90.00000000
_cell_angle_gamma   90.00000000
_symmetry_Int_Tables_number   1
_chemical_formula_structural   Li4TeF2
_chemical_formula_sum   'Li96 Te24 F48'
_cell_volume   2307.81932139
_cell_formula_units_Z   24
loop_
 _symmetry_equiv_pos_site_id
 _symmetry_equiv_pos_as_xyz
  1  'x, y, z'
loop_
 _atom_site_type_symbol
 _atom_site_label
 _atom_site_symmetry_multiplicity
 _atom_site_fract_x
 _atom_site_fract_y
 _atom_site_fract_z
 _atom_site_occupancy
  F  F0  1  0.73242672  0.85832664  0.04730074  1
  F  F1  1  -0.73242672  -0.85832664  0.04730074  1
  F  F2  1  -0.23242672  1.35832664  -0.04730074  1
  F  F3  1  1.23242672  -0.35832664  -0.04730074  1
  F  F4  1  -0.73242672  -0.85832664  -0.04730074  1
  F  F5  1  0.73242672  0.85832664  -0.04730074  1
  F  F6  1  1.23242672  -0.35832664  0.04730074  1
  F  F7  1  -0.23242672  1.35832664  0.04730074  1
  F  F8  1  0.38630125  0.11348489  0.00000000  1
  F  F9  1  0.61369875  0.88651511  0.00000000  1
  F  F10  1  0.11369875  0.61348489  0.00000000  1
  F  F11  1  0.88630125  0.38651511  0.00000000  1
  F  F12  1  0.73569969  0.32090315  0.70901023  1
  F  F13  1  0.26430031  0.67909685  0.70901023  1
  F  F14  1  0.76430031  0.82090315  0.29098977  1
  F  F15  1  0.23569969  0.17909685  0.29098977  1
  F  F16  1  0.26430031  0.67909685  0.29098977  1
  F  F17  1  0.73569969  0.32090315  0.29098977  1
  F  F18  1  0.23569969  0.17909685  0.70901023  1
  F  F19  1  0.76430031  0.82090315  0.70901023  1
  F  F20  1  0.00000000  0.00000000  0.00000000  1
  F  F21  1  0.50000000  0.50000000  0.00000000  1
  F  F22  1  0.20545635  0.66697502  0.27125089  1
  F  F23  1  0.79454365  0.33302498  0.27125089  1
  F  F24  1  0.29454365  0.16697502  0.72874911  1
  F  F25  1  0.70545635  0.83302498  0.72874911  1
  F  F26  1  0.79454365  0.33302498  0.72874911  1
  F  F27  1  0.20545635  0.66697502  0.72874911  1
  F  F28  1  0.70545635  0.83302498  0.27125089  1
  F  F29  1  0.29454365  0.16697502  0.27125089  1
  F  F30  1  0.95138505  0.55537419  0.59529293  1
  F  F31  1  0.04861495  0.44462581  0.59529293  1
  F  F32  1  0.54861495  0.05537419  0.40470707  1
  F  F33  1  0.45138505  0.94462581  0.40470707  1
  F  F34  1  0.04861495  0.44462581  0.40470707  1
  F  F35  1  0.95138505  0.55537419  0.40470707  1
  F  F36  1  0.45138505  0.94462581  0.59529293  1
  F  F37  1  0.54861495  0.05537419  0.59529293  1
  F  F38  1  0.82110596  0.57943968  0.88376465  1
  F  F39  1  0.17889404  0.42056032  0.88376465  1
  F  F40  1  0.67889404  0.07943968  0.11623535  1
  F  F41  1  0.32110596  0.92056032  0.11623535  1
  F  F42  1  0.17889404  0.42056032  0.11623535  1
  F  F43  1  0.82110596  0.57943968  0.11623535  1
  F  F44  1  0.32110596  0.92056032  0.88376465  1
  F  F45  1  0.67889404  0.07943968  0.88376465  1
  F  F46  1  0.00000000  0.50000000  0.50000000  1
  F  F47  1  0.50000000  0.00000000  0.50000000  1
  Li  Li48  1  0.00000000  0.50000000  0.00000000  1
  Li  Li49  1  0.50000000  0.00000000  0.00000000  1
  Li  Li50  1  0.08603045  0.12276920  0.66309942  1
  Li  Li51  1  0.91396955  0.87723080  0.66309942  1
  Li  Li52  1  0.41396955  0.62276920  0.33690058  1
  Li  Li53  1  0.58603045  0.37723080  0.33690058  1
  Li  Li54  1  0.91396955  0.87723080  0.33690058  1
  Li  Li55  1  0.08603045  0.12276920  0.33690058  1
  Li  Li56  1  0.58603045  0.37723080  0.66309942  1
  Li  Li57  1  0.41396955  0.62276920  0.66309942  1
  Li  Li58  1  0.18148445  0.19658834  0.50000000  1
  Li  Li59  1  0.81851555  0.80341166  0.50000000  1
  Li  Li60  1  0.31851555  0.69658834  0.50000000  1
  Li  Li61  1  0.68148445  0.30341166  0.50000000  1
  Li  Li62  1  0.15430143  0.10389647  0.88845706  1
  Li  Li63  1  0.84569857  0.89610353  0.88845706  1
  Li  Li64  1  0.34569857  0.60389647  0.11154294  1
  Li  Li65  1  0.65430143  0.39610353  0.11154294  1
  Li  Li66  1  0.84569857  0.89610353  0.11154294  1
  Li  Li67  1  0.15430143  0.10389647  0.11154294  1
  Li  Li68  1  0.65430143  0.39610353  0.88845706  1
  Li  Li69  1  0.34569857  0.60389647  0.88845706  1
  Li  Li70  1  0.46414632  0.04339734  0.68813365  1
  Li  Li71  1  0.53585368  0.95660266  0.68813365  1
  Li  Li72  1  0.03585368  0.54339734  0.31186635  1
  Li  Li73  1  0.96414632  0.45660266  0.31186635  1
  Li  Li74  1  0.53585368  0.95660266  0.31186635  1
  Li  Li75  1  0.46414632  0.04339734  0.31186635  1
  Li  Li76  1  0.96414632  0.45660266  0.68813365  1
  Li  Li77  1  0.03585368  0.54339734  0.68813365  1
  Li  Li78  1  0.00000000  0.00000000  0.50000000  1
  Li  Li79  1  0.50000000  0.50000000  0.50000000  1
  Li  Li80  1  0.52002800  0.83422213  0.30591071  1
  Li  Li81  1  0.47997200  0.16577787  0.30591071  1
  Li  Li82  1  0.97997200  0.33422213  0.69408929  1
  Li  Li83  1  0.02002800  0.66577787  0.69408929  1
  Li  Li84  1  0.47997200  0.16577787  0.69408929  1
  Li  Li85  1  0.52002800  0.83422213  0.69408929  1
  Li  Li86  1  0.02002800  0.66577787  0.30591071  1
  Li  Li87  1  0.97997200  0.33422213  0.30591071  1
  Li  Li88  1  0.47903595  0.70762599  0.00000000  1
  Li  Li89  1  0.52096405  0.29237401  0.00000000  1
  Li  Li90  1  0.02096405  0.20762599  0.00000000  1
  Li  Li91  1  0.97903595  0.79237401  0.00000000  1
  Li  Li92  1  0.85227451  0.61852995  0.50000000  1
  Li  Li93  1  0.14772549  0.38147005  0.50000000  1
  Li  Li94  1  0.64772549  0.11852995  0.50000000  1
  Li  Li95  1  0.35227451  0.88147005  0.50000000  1
  Li  Li96  1  0.34788592  0.39157096  0.19545316  1
  Li  Li97  1  0.65211408  0.60842904  0.19545316  1
  Li  Li98  1  0.15211408  0.89157096  0.80454684  1
  Li  Li99  1  0.84788592  0.10842904  0.80454684  1
  Li  Li100  1  0.65211408  0.60842904  0.80454684  1
  Li  Li101  1  0.34788592  0.39157096  0.80454684  1
  Li  Li102  1  0.84788592  0.10842904  0.19545316  1
  Li  Li103  1  0.15211408  0.89157096  0.19545316  1
  Li  Li104  1  0.08412557  0.27831583  0.21061385  1
  Li  Li105  1  0.91587443  0.72168417  0.21061385  1
  Li  Li106  1  0.41587443  0.77831583  0.78938615  1
  Li  Li107  1  0.58412557  0.22168417  0.78938615  1
  Li  Li108  1  0.91587443  0.72168417  0.78938615  1
  Li  Li109  1  0.08412557  0.27831583  0.78938615  1
  Li  Li110  1  0.58412557  0.22168417  0.21061385  1
  Li  Li111  1  0.41587443  0.77831583  0.21061385  1
  Li  Li112  1  0.82829255  0.31686153  0.58423887  1
  Li  Li113  1  0.17170745  0.68313847  0.58423887  1
  Li  Li114  1  0.67170745  0.81686153  0.41576113  1
  Li  Li115  1  0.32829255  0.18313847  0.41576113  1
  Li  Li116  1  0.17170745  0.68313847  0.41576113  1
  Li  Li117  1  0.82829255  0.31686153  0.41576113  1
  Li  Li118  1  0.32829255  0.18313847  0.58423887  1
  Li  Li119  1  0.67170745  0.81686153  0.58423887  1
  Li  Li120  1  0.14181676  0.16794731  0.18636153  1
  Li  Li121  1  0.85818324  0.83205269  0.18636153  1
  Li  Li122  1  0.35818324  0.66794731  0.81363847  1
  Li  Li123  1  0.64181676  0.33205269  0.81363847  1
  Li  Li124  1  0.85818324  0.83205269  0.81363847  1
  Li  Li125  1  0.14181676  0.16794731  0.81363847  1
  Li  Li126  1  0.64181676  0.33205269  0.18636153  1
  Li  Li127  1  0.35818324  0.66794731  0.18636153  1
  Li  Li128  1  0.67070296  0.22343514  0.10526933  1
  Li  Li129  1  0.32929704  0.77656486  0.10526933  1
  Li  Li130  1  0.82929704  0.72343514  0.89473067  1
  Li  Li131  1  0.17070296  0.27656486  0.89473067  1
  Li  Li132  1  0.32929704  0.77656486  0.89473067  1
  Li  Li133  1  0.67070296  0.22343514  0.89473067  1
  Li  Li134  1  0.17070296  0.27656486  0.10526933  1
  Li  Li135  1  0.82929704  0.72343514  0.10526933  1
  Li  Li136  1  0.92406513  0.96804833  0.19252322  1
  Li  Li137  1  0.07593487  0.03195167  0.19252322  1
  Li  Li138  1  0.57593487  0.46804833  0.80747678  1
  Li  Li139  1  0.42406513  0.53195167  0.80747678  1
  Li  Li140  1  0.07593487  0.03195167  0.80747678  1
  Li  Li141  1  0.92406513  0.96804833  0.80747678  1
  Li  Li142  1  0.42406513  0.53195167  0.19252322  1
  Li  Li143  1  0.57593487  0.46804833  0.19252322  1
  Te  Te144  1  0.02089057  0.77935061  0.64136016  1
  Te  Te145  1  0.97910943  0.22064939  0.64136016  1
  Te  Te146  1  0.47910943  0.27935061  0.35863984  1
  Te  Te147  1  0.52089057  0.72064939  0.35863984  1
  Te  Te148  1  0.97910943  0.22064939  0.35863984  1
  Te  Te149  1  0.02089057  0.77935061  0.35863984  1
  Te  Te150  1  0.52089057  0.72064939  0.64136016  1
  Te  Te151  1  0.47910943  0.27935061  0.64136016  1
  Te  Te152  1  0.44436576  0.44735994  0.93254329  1
  Te  Te153  1  0.55563424  0.55264006  0.93254329  1
  Te  Te154  1  0.05563424  0.94735994  0.06745671  1
  Te  Te155  1  0.94436576  0.05264006  0.06745671  1
  Te  Te156  1  0.55563424  0.55264006  0.06745671  1
  Te  Te157  1  0.44436576  0.44735994  0.06745671  1
  Te  Te158  1  0.94436576  0.05264006  0.93254329  1
  Te  Te159  1  0.05563424  0.94735994  0.93254329  1
  Te  Te160  1  0.40482113  0.49602279  0.62794606  1
  Te  Te161  1  0.59517887  0.50397721  0.62794606  1
  Te  Te162  1  0.09517887  0.99602279  0.37205394  1
  Te  Te163  1  0.90482113  0.00397721  0.37205394  1
  Te  Te164  1  0.59517887  0.50397721  0.37205394  1
  Te  Te165  1  0.40482113  0.49602279  0.37205394  1
  Te  Te166  1  0.90482113  0.00397721  0.62794606  1
  Te  Te167  1  0.09517887  0.99602279  0.62794606  1
