# generated using pymatgen
data_Li2Y2As4P2Se
_symmetry_space_group_name_H-M   'P 1'
_cell_length_a   5.56134584
_cell_length_b   5.64777012
_cell_length_c   6.85761924
_cell_angle_alpha   92.72376643
_cell_angle_beta   95.51620414
_cell_angle_gamma   100.12119919
_symmetry_Int_Tables_number   1
_chemical_formula_structural   Li2Y2As4P2Se
_chemical_formula_sum   'Li2 Y2 As4 P2 Se1'
_cell_volume   210.60200985
_cell_formula_units_Z   1
loop_
 _symmetry_equiv_pos_site_id
 _symmetry_equiv_pos_as_xyz
  1  'x, y, z'
loop_
 _atom_site_type_symbol
 _atom_site_label
 _atom_site_symmetry_multiplicity
 _atom_site_fract_x
 _atom_site_fract_y
 _atom_site_fract_z
 _atom_site_occupancy
  Se  Se0  1  0.12500000  0.00000000  0.25000000  1
  P  P1  1  0.00000000  0.00000000  0.00000000  1
  P  P2  1  0.37500000  0.00000000  0.25000000  1
  As  As3  1  0.25000000  0.25000000  0.25000000  1
  As  As4  1  0.00000000  0.25000000  0.12500000  1
  As  As5  1  0.78154792  0.24283996  0.29703328  1
  As  As6  1  0.80323022  0.51610612  0.41213625  1
  Li  Li7  1  0.26523937  0.93273616  0.22054188  1
  Li  Li8  1  0.89656751  0.10283728  0.38724434  1
  Y  Y9  1  0.27094293  0.46266841  0.10703468  1
  Y  Y10  1  0.77350841  0.98225354  0.82242508  1
