# generated using pymatgen
data_LiF
_symmetry_space_group_name_H-M   'P 1'
_cell_length_a   11.59830701
_cell_length_b   7.01973987
_cell_length_c   10.05945654
_cell_angle_alpha   90.00000000
_cell_angle_beta   90.00000000
_cell_angle_gamma   90.00000000
_symmetry_Int_Tables_number   1
_chemical_formula_structural   LiF
_chemical_formula_sum   'Li30 F30'
_cell_volume   819.01176044
_cell_formula_units_Z   30
loop_
 _symmetry_equiv_pos_site_id
 _symmetry_equiv_pos_as_xyz
  1  'x, y, z'
loop_
 _atom_site_type_symbol
 _atom_site_label
 _atom_site_symmetry_multiplicity
 _atom_site_fract_x
 _atom_site_fract_y
 _atom_site_fract_z
 _atom_site_occupancy
  F  F0  1  0.25412037  0.79190184  0.13401784  1
  F  F1  1  0.74587963  0.20809816  0.13401784  1
  F  F2  1  0.24587963  0.29190184  0.86598216  1
  F  F3  1  0.75412037  0.70809816  0.86598216  1
  F  F4  1  0.74587963  0.20809816  0.86598216  1
  F  F5  1  0.25412037  0.79190184  0.86598216  1
  F  F6  1  0.75412037  0.70809816  0.13401784  1
  F  F7  1  0.24587963  0.29190184  0.13401784  1
  F  F8  1  0.63365872  0.11214683  0.57891688  1
  F  F9  1  0.36634128  0.88785317  0.57891688  1
  F  F10  1  0.86634128  0.61214683  0.42108312  1
  F  F11  1  0.13365872  0.38785317  0.42108312  1
  F  F12  1  0.36634128  0.88785317  0.42108312  1
  F  F13  1  0.63365872  0.11214683  0.42108312  1
  F  F14  1  0.13365872  0.38785317  0.57891688  1
  F  F15  1  0.86634128  0.61214683  0.57891688  1
  F  F16  1  0.74991885  0.24783758  0.80536702  1
  F  F17  1  0.25008115  0.75216242  0.80536702  1
  F  F18  1  0.75008115  0.74783758  0.19463298  1
  F  F19  1  0.24991885  0.25216242  0.19463298  1
  F  F20  1  0.25008115  0.75216242  0.19463298  1
  F  F21  1  0.74991885  0.24783758  0.19463298  1
  F  F22  1  0.24991885  0.25216242  0.80536702  1
  F  F23  1  0.75008115  0.74783758  0.80536702  1
  F  F24  1  0.56987935  0.04647549  0.00000000  1
  F  F25  1  0.43012065  0.95352451  0.00000000  1
  F  F26  1  0.93012065  0.54647549  0.00000000  1
  F  F27  1  0.06987935  0.45352451  0.00000000  1
  F  F28  1  0.00000000  0.50000000  0.00000000  1
  F  F29  1  0.50000000  0.00000000  0.00000000  1
  Li  Li30  1  0.00000000  0.50000000  0.50000000  1
  Li  Li31  1  0.50000000  0.00000000  0.50000000  1
  Li  Li32  1  0.14978592  0.51597830  0.35675586  1
  Li  Li33  1  -0.14978592  -0.51597830  0.35675586  1
  Li  Li34  1  0.35021408  1.01597830  -0.35675586  1
  Li  Li35  1  0.64978592  -0.01597830  -0.35675586  1
  Li  Li36  1  -0.14978592  -0.51597830  -0.35675586  1
  Li  Li37  1  0.14978592  0.51597830  -0.35675586  1
  Li  Li38  1  0.64978592  -0.01597830  0.35675586  1
  Li  Li39  1  0.35021408  1.01597830  0.35675586  1
  Li  Li40  1  0.00000000  0.00000000  0.50000000  1
  Li  Li41  1  0.50000000  0.50000000  0.50000000  1
  Li  Li42  1  0.32190625  0.82149200  0.00000000  1
  Li  Li43  1  0.67809375  0.17850800  0.00000000  1
  Li  Li44  1  0.17809375  0.32149200  0.00000000  1
  Li  Li45  1  0.82190625  0.67850800  0.00000000  1
  Li  Li46  1  0.00000000  0.00000000  0.00000000  1
  Li  Li47  1  0.50000000  0.50000000  0.00000000  1
  Li  Li48  1  0.82878116  0.26135767  0.87362496  1
  Li  Li49  1  0.17121884  0.73864233  0.87362496  1
  Li  Li50  1  0.67121884  0.76135767  0.12637504  1
  Li  Li51  1  0.32878116  0.23864233  0.12637504  1
  Li  Li52  1  0.17121884  0.73864233  0.12637504  1
  Li  Li53  1  0.82878116  0.26135767  0.12637504  1
  Li  Li54  1  0.32878116  0.23864233  0.87362496  1
  Li  Li55  1  0.67121884  0.76135767  0.87362496  1
  Li  Li56  1  0.18663642  0.96997764  0.50000000  1
  Li  Li57  1  0.81336358  0.03002236  0.50000000  1
  Li  Li58  1  0.31336358  0.46997764  0.50000000  1
  Li  Li59  1  0.68663642  0.53002236  0.50000000  1
