# generated using pymatgen
data_Li3Y2Sb2(PSe)2
_symmetry_space_group_name_H-M   'P 1'
_cell_length_a   5.08308560
_cell_length_b   5.21513228
_cell_length_c   7.10999082
_cell_angle_alpha   94.56773994
_cell_angle_beta   99.94758797
_cell_angle_gamma   108.34679592
_symmetry_Int_Tables_number   1
_chemical_formula_structural   Li3Y2Sb2(PSe)2
_chemical_formula_sum   'Li3 Y2 Sb2 P2 Se2'
_cell_volume   174.38862917
_cell_formula_units_Z   1
loop_
 _symmetry_equiv_pos_site_id
 _symmetry_equiv_pos_as_xyz
  1  'x, y, z'
loop_
 _atom_site_type_symbol
 _atom_site_label
 _atom_site_symmetry_multiplicity
 _atom_site_fract_x
 _atom_site_fract_y
 _atom_site_fract_z
 _atom_site_occupancy
  Y  Y0  1  0.00000000  0.00000000  0.00000000  1
  Y  Y1  1  0.50000000  0.50000000  0.50000000  1
  P  P2  1  0.25000000  0.25000000  0.25000000  1
  P  P3  1  0.75000000  0.25000000  0.00000000  1
  Se  Se4  1  0.25000000  0.75000000  0.50000000  1
  Se  Se5  1  0.30042193  0.85321192  0.70044267  1
  Li  Li6  1  0.51859923  0.61356217  0.29470560  1
  Li  Li7  1  0.93867624  0.10660836  0.32398998  1
  Li  Li8  1  0.71674413  0.06135465  0.40632246  1
  Sb  Sb9  1  0.14371946  0.27084597  0.63800713  1
  Sb  Sb10  1  0.10880865  0.88743690  0.62489519  1
