# generated using pymatgen
data_LiF
_symmetry_space_group_name_H-M   'P 1'
_cell_length_a   7.93261920
_cell_length_b   7.93261920
_cell_length_c   12.77637391
_cell_angle_alpha   90.00000000
_cell_angle_beta   90.00000000
_cell_angle_gamma   120.00000000
_symmetry_Int_Tables_number   1
_chemical_formula_structural   LiF
_chemical_formula_sum   'Li18 F18'
_cell_volume   696.26002091
_cell_formula_units_Z   18
loop_
 _symmetry_equiv_pos_site_id
 _symmetry_equiv_pos_as_xyz
  1  'x, y, z'
loop_
 _atom_site_type_symbol
 _atom_site_label
 _atom_site_symmetry_multiplicity
 _atom_site_fract_x
 _atom_site_fract_y
 _atom_site_fract_z
 _atom_site_occupancy
  F  F0  1  0.31449637  0.17701177  0.64963134  1
  F  F1  1  0.82298823  0.13748460  0.64963134  1
  F  F2  1  0.86251540  0.68550363  0.64963134  1
  F  F3  1  0.82298823  0.68550363  0.35036866  1
  F  F4  1  0.86251540  0.17701177  0.35036866  1
  F  F5  1  0.31449637  0.13748460  0.35036866  1
  F  F6  1  0.18562424  0.09657186  0.43228256  1
  F  F7  1  0.90342814  0.08905238  0.43228256  1
  F  F8  1  0.91094762  0.81437576  0.43228256  1
  F  F9  1  0.90342814  0.81437576  0.56771744  1
  F  F10  1  0.91094762  0.09657186  0.56771744  1
  F  F11  1  0.18562424  0.08905238  0.56771744  1
  F  F12  1  0.08308513  0.96695707  0.91502344  1
  F  F13  1  0.03304293  0.11612806  0.91502344  1
  F  F14  1  0.88387194  0.91691487  0.91502344  1
  F  F15  1  0.03304293  0.91691487  0.08497656  1
  F  F16  1  0.88387194  0.96695707  0.08497656  1
  F  F17  1  0.08308513  0.11612806  0.08497656  1
  Li  Li18  1  0.00000000  0.00000000  0.50000000  1
  Li  Li19  1  0.00000000  0.00000000  0.00000000  1
  Li  Li20  1  0.70448994  0.74234053  0.99663161  1
  Li  Li21  1  -0.74234053  -0.03785060  0.99663161  1
  Li  Li22  1  0.03785060  -0.70448994  0.99663161  1
  Li  Li23  1  -0.74234053  -0.70448994  -0.99663161  1
  Li  Li24  1  0.03785060  0.74234053  -0.99663161  1
  Li  Li25  1  0.70448994  -0.03785060  -0.99663161  1
  Li  Li26  1  0.28319015  0.73058289  0.88782576  1
  Li  Li27  1  0.26941711  0.55260726  0.88782576  1
  Li  Li28  1  0.44739274  0.71680985  0.88782576  1
  Li  Li29  1  0.26941711  0.71680985  0.11217424  1
  Li  Li30  1  0.44739274  0.73058289  0.11217424  1
  Li  Li31  1  0.28319015  0.55260726  0.11217424  1
  Li  Li32  1  0.33333333  0.66666667  0.50000000  1
  Li  Li33  1  0.33333333  0.66666667  0.00000000  1
  Li  Li34  1  0.00000000  0.00000000  0.37067620  1
  Li  Li35  1  0.00000000  0.00000000  0.62932380  1
