# generated using pymatgen
data_Li2Y2As3P2Se
_symmetry_space_group_name_H-M   'P 1'
_cell_length_a   4.94269654
_cell_length_b   4.98848518
_cell_length_c   6.98357393
_cell_angle_alpha   94.83833089
_cell_angle_beta   100.53687880
_cell_angle_gamma   109.43365222
_symmetry_Int_Tables_number   1
_chemical_formula_structural   Li2Y2As3P2Se
_chemical_formula_sum   'Li2 Y2 As3 P2 Se1'
_cell_volume   157.67299543
_cell_formula_units_Z   1
loop_
 _symmetry_equiv_pos_site_id
 _symmetry_equiv_pos_as_xyz
  1  'x, y, z'
loop_
 _atom_site_type_symbol
 _atom_site_label
 _atom_site_symmetry_multiplicity
 _atom_site_fract_x
 _atom_site_fract_y
 _atom_site_fract_z
 _atom_site_occupancy
  Se  Se0  1  0.00000000  0.00000000  0.00000000  1
  P  P1  1  0.50000000  0.50000000  0.50000000  1
  P  P2  1  0.25000000  0.25000000  0.25000000  1
  As  As3  1  0.75000000  0.25000000  0.00000000  1
  As  As4  1  0.25000000  0.75000000  0.50000000  1
  As  As5  1  0.73196115  0.84035168  0.11422800  1
  Li  Li6  1  0.27919572  0.24462669  0.56333175  1
  Li  Li7  1  0.15686036  0.33100317  0.52195517  1
  Y  Y8  1  0.78384146  0.23075946  0.64561247  1
  Y  Y9  1  0.23829071  0.79877646  0.66149369  1
