# generated using pymatgen
data_LiF
_symmetry_space_group_name_H-M   'P 1'
_cell_length_a   13.21887333
_cell_length_b   13.21887333
_cell_length_c   7.08143341
_cell_angle_alpha   90.00000000
_cell_angle_beta   90.00000000
_cell_angle_gamma   90.00000000
_symmetry_Int_Tables_number   1
_chemical_formula_structural   LiF
_chemical_formula_sum   'Li64 F64'
_cell_volume   1237.39984570
_cell_formula_units_Z   64
loop_
 _symmetry_equiv_pos_site_id
 _symmetry_equiv_pos_as_xyz
  1  'x, y, z'
loop_
 _atom_site_type_symbol
 _atom_site_label
 _atom_site_symmetry_multiplicity
 _atom_site_fract_x
 _atom_site_fract_y
 _atom_site_fract_z
 _atom_site_occupancy
  F  F0  1  0.00000000  0.25000000  0.12500000  1
  F  F1  1  0.00000000  0.75000000  0.37500000  1
  F  F2  1  0.00000000  0.75000000  0.87500000  1
  F  F3  1  0.00000000  0.25000000  0.62500000  1
  F  F4  1  0.50000000  0.75000000  0.62500000  1
  F  F5  1  0.50000000  0.25000000  0.87500000  1
  F  F6  1  0.50000000  0.25000000  0.37500000  1
  F  F7  1  0.50000000  0.75000000  0.12500000  1
  F  F8  1  0.00000000  0.25000000  0.37500000  1
  F  F9  1  0.00000000  0.75000000  0.62500000  1
  F  F10  1  0.50000000  0.25000000  0.62500000  1
  F  F11  1  0.50000000  0.75000000  0.37500000  1
  F  F12  1  0.50000000  0.75000000  0.87500000  1
  F  F13  1  0.50000000  0.25000000  0.12500000  1
  F  F14  1  0.00000000  0.75000000  0.12500000  1
  F  F15  1  0.00000000  0.25000000  0.87500000  1
  F  F16  1  0.37880714  0.60554872  0.50260303  1
  F  F17  1  0.12119286  -0.60554872  1.00260303  1
  F  F18  1  -0.35554872  1.12880714  0.75260303  1
  F  F19  1  0.85554872  -0.12880714  1.25260303  1
  F  F20  1  0.12119286  0.60554872  -0.50260303  1
  F  F21  1  0.37880714  -0.60554872  -0.00260303  1
  F  F22  1  0.85554872  1.12880714  0.24739697  1
  F  F23  1  -0.35554872  -0.12880714  -0.25260303  1
  F  F24  1  -0.37880714  -0.60554872  -0.50260303  1
  F  F25  1  0.87880714  0.60554872  -0.00260303  1
  F  F26  1  1.35554872  -0.12880714  0.24739697  1
  F  F27  1  0.14445128  1.12880714  -0.25260303  1
  F  F28  1  0.87880714  -0.60554872  0.50260303  1
  F  F29  1  -0.37880714  0.60554872  1.00260303  1
  F  F30  1  0.14445128  -0.12880714  0.75260303  1
  F  F31  1  1.35554872  1.12880714  1.25260303  1
  F  F32  1  0.87880714  1.10554872  1.00260303  1
  F  F33  1  0.62119286  -0.10554872  1.50260303  1
  F  F34  1  0.14445128  1.62880714  1.25260303  1
  F  F35  1  1.35554872  0.37119286  1.75260303  1
  F  F36  1  0.62119286  1.10554872  -0.00260303  1
  F  F37  1  0.87880714  -0.10554872  0.49739697  1
  F  F38  1  1.35554872  1.62880714  0.74739697  1
  F  F39  1  0.14445128  0.37119286  0.24739697  1
  F  F40  1  0.12119286  -0.10554872  -0.00260303  1
  F  F41  1  1.37880714  1.10554872  0.49739697  1
  F  F42  1  1.85554872  0.37119286  0.74739697  1
  F  F43  1  0.64445128  1.62880714  0.24739697  1
  F  F44  1  1.37880714  -0.10554872  1.00260303  1
  F  F45  1  0.12119286  1.10554872  1.50260303  1
  F  F46  1  0.64445128  0.37119286  1.25260303  1
  F  F47  1  1.85554872  1.62880714  1.75260303  1
  F  F48  1  0.17023541  0.42023541  0.12500000  1
  F  F49  1  0.32976459  0.57976459  0.62500000  1
  F  F50  1  0.82976459  0.92023541  0.37500000  1
  F  F51  1  0.67023541  0.07976459  0.87500000  1
  F  F52  1  0.82976459  0.57976459  0.87500000  1
  F  F53  1  0.67023541  0.42023541  0.37500000  1
  F  F54  1  0.17023541  0.07976459  0.62500000  1
  F  F55  1  0.32976459  0.92023541  0.12500000  1
  F  F56  1  0.67023541  0.92023541  0.62500000  1
  F  F57  1  0.82976459  0.07976459  0.12500000  1
  F  F58  1  0.32976459  0.42023541  0.87500000  1
  F  F59  1  0.17023541  0.57976459  0.37500000  1
  F  F60  1  0.32976459  0.07976459  0.37500000  1
  F  F61  1  0.17023541  0.92023541  0.87500000  1
  F  F62  1  0.67023541  0.57976459  0.12500000  1
  F  F63  1  0.82976459  0.42023541  0.62500000  1
  Li  Li64  1  0.07392413  0.00000000  0.25000000  1
  Li  Li65  1  0.42607587  0.00000000  0.75000000  1
  Li  Li66  1  0.25000000  0.82392413  0.50000000  1
  Li  Li67  1  0.25000000  0.17607587  0.00000000  1
  Li  Li68  1  0.92607587  0.00000000  0.75000000  1
  Li  Li69  1  0.57392413  0.00000000  0.25000000  1
  Li  Li70  1  0.75000000  0.17607587  0.50000000  1
  Li  Li71  1  0.75000000  0.82392413  0.00000000  1
  Li  Li72  1  0.57392413  0.50000000  0.75000000  1
  Li  Li73  1  0.92607587  0.50000000  0.25000000  1
  Li  Li74  1  0.75000000  0.32392413  0.00000000  1
  Li  Li75  1  0.75000000  0.67607587  0.50000000  1
  Li  Li76  1  0.42607587  0.50000000  0.25000000  1
  Li  Li77  1  0.07392413  0.50000000  0.75000000  1
  Li  Li78  1  0.25000000  0.67607587  0.00000000  1
  Li  Li79  1  0.25000000  0.32392413  0.50000000  1
  Li  Li80  1  0.33634879  0.71581607  0.27618682  1
  Li  Li81  1  0.16365121  0.28418393  0.77618682  1
  Li  Li82  1  0.53418393  0.08634879  0.52618682  1
  Li  Li83  1  0.96581607  0.91365121  0.02618682  1
  Li  Li84  1  0.16365121  0.71581607  0.72381318  1
  Li  Li85  1  0.33634879  0.28418393  0.22381318  1
  Li  Li86  1  0.96581607  0.08634879  0.47381318  1
  Li  Li87  1  0.53418393  0.91365121  0.97381318  1
  Li  Li88  1  0.66365121  0.28418393  0.72381318  1
  Li  Li89  1  0.83634879  0.71581607  0.22381318  1
  Li  Li90  1  0.46581607  0.91365121  0.47381318  1
  Li  Li91  1  0.03418393  0.08634879  0.97381318  1
  Li  Li92  1  0.83634879  0.28418393  0.27618682  1
  Li  Li93  1  0.66365121  0.71581607  0.77618682  1
  Li  Li94  1  0.03418393  0.91365121  0.52618682  1
  Li  Li95  1  0.46581607  0.08634879  0.02618682  1
  Li  Li96  1  0.83634879  0.21581607  0.77618682  1
  Li  Li97  1  0.66365121  0.78418393  0.27618682  1
  Li  Li98  1  0.03418393  0.58634879  0.02618682  1
  Li  Li99  1  0.46581607  0.41365121  0.52618682  1
  Li  Li100  1  0.66365121  0.21581607  0.22381318  1
  Li  Li101  1  0.83634879  0.78418393  0.72381318  1
  Li  Li102  1  0.46581607  0.58634879  0.97381318  1
  Li  Li103  1  0.03418393  0.41365121  0.47381318  1
  Li  Li104  1  0.16365121  0.78418393  0.22381318  1
  Li  Li105  1  0.33634879  0.21581607  0.72381318  1
  Li  Li106  1  0.96581607  0.41365121  0.97381318  1
  Li  Li107  1  0.53418393  0.58634879  0.47381318  1
  Li  Li108  1  0.33634879  0.78418393  0.77618682  1
  Li  Li109  1  0.16365121  0.21581607  0.27618682  1
  Li  Li110  1  0.53418393  0.41365121  0.02618682  1
  Li  Li111  1  0.96581607  0.58634879  0.52618682  1
  Li  Li112  1  0.29769508  0.54769508  0.12500000  1
  Li  Li113  1  0.20230492  0.45230492  0.62500000  1
  Li  Li114  1  0.70230492  0.04769508  0.37500000  1
  Li  Li115  1  0.79769508  0.95230492  0.87500000  1
  Li  Li116  1  0.70230492  0.45230492  0.87500000  1
  Li  Li117  1  0.79769508  0.54769508  0.37500000  1
  Li  Li118  1  0.29769508  0.95230492  0.62500000  1
  Li  Li119  1  0.20230492  0.04769508  0.12500000  1
  Li  Li120  1  0.79769508  0.04769508  0.62500000  1
  Li  Li121  1  0.70230492  0.95230492  0.12500000  1
  Li  Li122  1  0.20230492  0.54769508  0.87500000  1
  Li  Li123  1  0.29769508  0.45230492  0.37500000  1
  Li  Li124  1  0.20230492  0.95230492  0.37500000  1
  Li  Li125  1  0.29769508  0.04769508  0.87500000  1
  Li  Li126  1  0.79769508  0.45230492  0.12500000  1
  Li  Li127  1  0.70230492  0.54769508  0.62500000  1
