# generated using pymatgen
data_Li2Y2MoAs4P3
_symmetry_space_group_name_H-M   'P 1'
_cell_length_a   4.80692091
_cell_length_b   5.00655127
_cell_length_c   6.97406046
_cell_angle_alpha   95.10212129
_cell_angle_beta   101.11135946
_cell_angle_gamma   110.49319343
_symmetry_Int_Tables_number   1
_chemical_formula_structural   Li2Y2MoAs4P3
_chemical_formula_sum   'Li2 Y2 Mo1 As4 P3'
_cell_volume   152.01973100
_cell_formula_units_Z   1
loop_
 _symmetry_equiv_pos_site_id
 _symmetry_equiv_pos_as_xyz
  1  'x, y, z'
loop_
 _atom_site_type_symbol
 _atom_site_label
 _atom_site_symmetry_multiplicity
 _atom_site_fract_x
 _atom_site_fract_y
 _atom_site_fract_z
 _atom_site_occupancy
  P  P0  1  0.12500000  0.00000000  0.25000000  1
  P  P1  1  0.00000000  0.00000000  0.00000000  1
  P  P2  1  0.37500000  0.00000000  0.25000000  1
  Mo  Mo3  1  0.25000000  0.25000000  0.25000000  1
  As  As4  1  0.00000000  0.25000000  0.12500000  1
  As  As5  1  0.08024306  0.13581115  0.46546359  1
  As  As6  1  0.40211680  0.73818481  0.64625103  1
  As  As7  1  0.63841900  0.29634272  0.23015874  1
  Li  Li8  1  0.98824844  0.64476542  0.06574545  1
  Li  Li9  1  0.45029938  0.21475933  0.50507020  1
  Y  Y10  1  0.53251830  0.07731926  0.46440837  1
  Y  Y11  1  0.96524846  0.50744012  0.27533946  1
