# generated using pymatgen
data_LiF
_symmetry_space_group_name_H-M   'P 1'
_cell_length_a   12.80309527
_cell_length_b   12.80309527
_cell_length_c   8.91924093
_cell_angle_alpha   90.00000000
_cell_angle_beta   90.00000000
_cell_angle_gamma   120.00000000
_symmetry_Int_Tables_number   1
_chemical_formula_structural   LiF
_chemical_formula_sum   'Li33 F33'
_cell_volume   1266.15968576
_cell_formula_units_Z   33
loop_
 _symmetry_equiv_pos_site_id
 _symmetry_equiv_pos_as_xyz
  1  'x, y, z'
loop_
 _atom_site_type_symbol
 _atom_site_label
 _atom_site_symmetry_multiplicity
 _atom_site_fract_x
 _atom_site_fract_y
 _atom_site_fract_z
 _atom_site_occupancy
  F  F0  1  0.19592149  0.58862103  0.10708033  1
  F  F1  1  0.41137897  0.60730046  0.10708033  1
  F  F2  1  0.39269954  0.80407851  0.10708033  1
  F  F3  1  0.41137897  0.80407851  0.89291967  1
  F  F4  1  0.39269954  0.58862103  0.89291967  1
  F  F5  1  0.19592149  0.60730046  0.89291967  1
  F  F6  1  0.11331398  0.43842410  0.88357020  1
  F  F7  1  0.56157590  0.67488988  0.88357020  1
  F  F8  1  0.32511012  0.88668602  0.88357020  1
  F  F9  1  0.56157590  0.88668602  0.11642980  1
  F  F10  1  0.32511012  0.43842410  0.11642980  1
  F  F11  1  0.11331398  0.67488988  0.11642980  1
  F  F12  1  0.25359377  0.58149530  0.95131548  1
  F  F13  1  0.41850470  0.67209847  0.95131548  1
  F  F14  1  0.32790153  0.74640623  0.95131548  1
  F  F15  1  0.41850470  0.74640623  0.04868452  1
  F  F16  1  0.32790153  0.58149530  0.04868452  1
  F  F17  1  0.25359377  0.67209847  0.04868452  1
  F  F18  1  0.32003693  0.46309357  0.97724507  1
  F  F19  1  0.53690643  0.85694337  0.97724507  1
  F  F20  1  0.14305663  0.67996307  0.97724507  1
  F  F21  1  0.53690643  0.67996307  0.02275493  1
  F  F22  1  0.14305663  0.46309357  0.02275493  1
  F  F23  1  0.32003693  0.85694337  0.02275493  1
  F  F24  1  0.69989505  0.50224300  0.56193592  1
  F  F25  1  0.49775700  0.19765205  0.56193592  1
  F  F26  1  0.80234795  0.30010495  0.56193592  1
  F  F27  1  0.49775700  0.30010495  0.43806408  1
  F  F28  1  0.80234795  0.50224300  0.43806408  1
  F  F29  1  0.69989505  0.19765205  0.43806408  1
  F  F30  1  0.37781789  0.62218211  0.50000000  1
  F  F31  1  0.37781789  0.75563577  0.50000000  1
  F  F32  1  0.24436423  0.62218211  0.50000000  1
  Li  Li33  1  0.33333333  0.66666667  -0.00000000  1
  Li  Li34  1  0.25382219  0.92352922  0.31167504  1
  Li  Li35  1  -0.92352922  -0.66970703  0.31167504  1
  Li  Li36  1  0.66970703  -0.25382219  0.31167504  1
  Li  Li37  1  -0.92352922  -0.25382219  -0.31167504  1
  Li  Li38  1  0.66970703  0.92352922  -0.31167504  1
  Li  Li39  1  0.25382219  -0.66970703  -0.31167504  1
  Li  Li40  1  0.00000000  0.00000000  0.00000000  1
  Li  Li41  1  0.27929117  0.73346951  0.39463274  1
  Li  Li42  1  0.26653049  0.54582166  0.39463274  1
  Li  Li43  1  0.45417834  0.72070883  0.39463274  1
  Li  Li44  1  0.26653049  0.72070883  0.60536726  1
  Li  Li45  1  0.45417834  0.73346951  0.60536726  1
  Li  Li46  1  0.27929117  0.54582166  0.60536726  1
  Li  Li47  1  0.84230260  0.00404254  0.60547055  1
  Li  Li48  1  0.99595746  0.83826006  0.60547055  1
  Li  Li49  1  0.16173994  0.15769740  0.60547055  1
  Li  Li50  1  0.99595746  0.15769740  0.39452945  1
  Li  Li51  1  0.16173994  0.00404254  0.39452945  1
  Li  Li52  1  0.84230260  0.83826006  0.39452945  1
  Li  Li53  1  0.66666667  0.33333333  0.50000000  1
  Li  Li54  1  0.33636745  0.78076797  0.76422371  1
  Li  Li55  1  0.21923203  0.55559947  0.76422371  1
  Li  Li56  1  0.44440053  0.66363255  0.76422371  1
  Li  Li57  1  0.21923203  0.66363255  0.23577629  1
  Li  Li58  1  0.44440053  0.78076797  0.23577629  1
  Li  Li59  1  0.33636745  0.55559947  0.23577629  1
  Li  Li60  1  0.05598762  0.78568247  0.21320359  1
  Li  Li61  1  0.21431753  0.27030516  0.21320359  1
  Li  Li62  1  0.72969484  0.94401238  0.21320359  1
  Li  Li63  1  0.21431753  0.94401238  0.78679641  1
  Li  Li64  1  0.72969484  0.78568247  0.78679641  1
  Li  Li65  1  0.05598762  0.27030516  0.78679641  1
