# generated using pymatgen
data_LiF
_symmetry_space_group_name_H-M   'P 1'
_cell_length_a   14.77336981
_cell_length_b   14.77336981
_cell_length_c   3.60701859
_cell_angle_alpha   90.00000000
_cell_angle_beta   90.00000000
_cell_angle_gamma   120.00000000
_symmetry_Int_Tables_number   1
_chemical_formula_structural   LiF
_chemical_formula_sum   'Li36 F36'
_cell_volume   681.77041485
_cell_formula_units_Z   36
loop_
 _symmetry_equiv_pos_site_id
 _symmetry_equiv_pos_as_xyz
  1  'x, y, z'
loop_
 _atom_site_type_symbol
 _atom_site_label
 _atom_site_symmetry_multiplicity
 _atom_site_fract_x
 _atom_site_fract_y
 _atom_site_fract_z
 _atom_site_occupancy
  F  F0  1  0.44864365  0.39398524  0.36314751  1
  F  F1  1  -0.39398524  0.05465841  0.36314751  1
  F  F2  1  -0.05465841  -0.44864365  0.36314751  1
  F  F3  1  -0.44864365  -0.39398524  0.86314751  1
  F  F4  1  0.39398524  -0.05465841  0.86314751  1
  F  F5  1  0.05465841  0.44864365  0.86314751  1
  F  F6  1  -0.44864365  -0.39398524  -0.36314751  1
  F  F7  1  0.39398524  -0.05465841  -0.36314751  1
  F  F8  1  0.05465841  0.44864365  -0.36314751  1
  F  F9  1  0.44864365  0.39398524  0.13685249  1
  F  F10  1  -0.39398524  0.05465841  0.13685249  1
  F  F11  1  -0.05465841  -0.44864365  0.13685249  1
  F  F12  1  0.00000000  0.00000000  0.25000000  1
  F  F13  1  0.00000000  0.00000000  0.75000000  1
  F  F14  1  0.19377001  0.61993958  0.50686299  1
  F  F15  1  0.38006042  0.57383043  0.50686299  1
  F  F16  1  0.42616957  0.80622999  0.50686299  1
  F  F17  1  0.80622999  0.38006042  0.00686299  1
  F  F18  1  0.61993958  0.42616957  0.00686299  1
  F  F19  1  0.57383043  0.19377001  0.00686299  1
  F  F20  1  0.80622999  0.38006042  0.49313701  1
  F  F21  1  0.61993958  0.42616957  0.49313701  1
  F  F22  1  0.57383043  0.19377001  0.49313701  1
  F  F23  1  0.19377001  0.61993958  0.99313701  1
  F  F24  1  0.38006042  0.57383043  0.99313701  1
  F  F25  1  0.42616957  0.80622999  0.99313701  1
  F  F26  1  0.50000000  -0.00000000  0.00000000  1
  F  F27  1  0.00000000  0.50000000  0.00000000  1
  F  F28  1  0.50000000  0.50000000  0.00000000  1
  F  F29  1  0.50000000  -0.00000000  0.50000000  1
  F  F30  1  0.00000000  0.50000000  0.50000000  1
  F  F31  1  0.50000000  0.50000000  0.50000000  1
  F  F32  1  0.33333333  0.66666667  0.09083607  1
  F  F33  1  0.66666667  0.33333333  0.59083607  1
  F  F34  1  0.66666667  0.33333333  0.90916393  1
  F  F35  1  0.33333333  0.66666667  0.40916393  1
  Li  Li36  1  0.72686213  0.08946877  0.25000000  1
  Li  Li37  1  0.91053123  0.63739335  0.25000000  1
  Li  Li38  1  0.36260665  0.27313787  0.25000000  1
  Li  Li39  1  0.27313787  0.91053123  0.75000000  1
  Li  Li40  1  0.08946877  0.36260665  0.75000000  1
  Li  Li41  1  0.63739335  0.72686213  0.75000000  1
  Li  Li42  1  0.94504965  0.86367097  0.46450688  1
  Li  Li43  1  0.13632903  0.08137868  0.46450688  1
  Li  Li44  1  0.91862132  0.05495035  0.46450688  1
  Li  Li45  1  0.05495035  0.13632903  0.96450688  1
  Li  Li46  1  0.86367097  0.91862132  0.96450688  1
  Li  Li47  1  0.08137868  0.94504965  0.96450688  1
  Li  Li48  1  0.05495035  0.13632903  0.53549312  1
  Li  Li49  1  0.86367097  0.91862132  0.53549312  1
  Li  Li50  1  0.08137868  0.94504965  0.53549312  1
  Li  Li51  1  0.94504965  0.86367097  0.03549312  1
  Li  Li52  1  0.13632903  0.08137868  0.03549312  1
  Li  Li53  1  0.91862132  0.05495035  0.03549312  1
  Li  Li54  1  0.43011551  0.12279666  0.56479111  1
  Li  Li55  1  0.87720334  0.30731885  0.56479111  1
  Li  Li56  1  0.69268115  0.56988449  0.56479111  1
  Li  Li57  1  0.56988449  0.87720334  0.06479111  1
  Li  Li58  1  0.12279666  0.69268115  0.06479111  1
  Li  Li59  1  0.30731885  0.43011551  0.06479111  1
  Li  Li60  1  0.56988449  0.87720334  0.43520889  1
  Li  Li61  1  0.12279666  0.69268115  0.43520889  1
  Li  Li62  1  0.30731885  0.43011551  0.43520889  1
  Li  Li63  1  0.43011551  0.12279666  0.93520889  1
  Li  Li64  1  0.87720334  0.30731885  0.93520889  1
  Li  Li65  1  0.69268115  0.56988449  0.93520889  1
  Li  Li66  1  0.29706279  0.79789441  0.25000000  1
  Li  Li67  1  0.20210559  0.49916838  0.25000000  1
  Li  Li68  1  0.50083162  0.70293721  0.25000000  1
  Li  Li69  1  0.70293721  0.20210559  0.75000000  1
  Li  Li70  1  0.79789441  0.50083162  0.75000000  1
  Li  Li71  1  0.49916838  0.29706279  0.75000000  1
