# generated using pymatgen
data_Li2YTiOF
_symmetry_space_group_name_H-M   'P 1'
_cell_length_a   3.54744183
_cell_length_b   3.59662205
_cell_length_c   5.01813056
_cell_angle_alpha   99.33153591
_cell_angle_beta   99.65805590
_cell_angle_gamma   101.46372655
_symmetry_Int_Tables_number   1
_chemical_formula_structural   Li2YTiOF
_chemical_formula_sum   'Li2 Y1 Ti1 O1 F1'
_cell_volume   60.57924991
_cell_formula_units_Z   1
loop_
 _symmetry_equiv_pos_site_id
 _symmetry_equiv_pos_as_xyz
  1  'x, y, z'
loop_
 _atom_site_type_symbol
 _atom_site_label
 _atom_site_symmetry_multiplicity
 _atom_site_fract_x
 _atom_site_fract_y
 _atom_site_fract_z
 _atom_site_occupancy
  F  F0  1  0.00000000  0.00000000  0.00000000  1
  Li  Li1  1  0.50000000  0.50000000  0.50000000  1
  Li  Li2  1  0.25000000  0.25000000  0.25000000  1
  O  O3  1  0.75000000  0.25000000  0.00000000  1
  Ti  Ti4  1  0.25000000  0.75000000  0.50000000  1
  Y  Y5  1  0.87259550  0.39146533  0.80248273  1
