# generated using pymatgen
data_LiF
_symmetry_space_group_name_H-M   'P 1'
_cell_length_a   7.80888215
_cell_length_b   8.55849301
_cell_length_c   8.05985228
_cell_angle_alpha   90.00000000
_cell_angle_beta   90.00000000
_cell_angle_gamma   90.00000000
_symmetry_Int_Tables_number   1
_chemical_formula_structural   LiF
_chemical_formula_sum   'Li24 F24'
_cell_volume   538.65817016
_cell_formula_units_Z   24
loop_
 _symmetry_equiv_pos_site_id
 _symmetry_equiv_pos_as_xyz
  1  'x, y, z'
loop_
 _atom_site_type_symbol
 _atom_site_label
 _atom_site_symmetry_multiplicity
 _atom_site_fract_x
 _atom_site_fract_y
 _atom_site_fract_z
 _atom_site_occupancy
  F  F0  1  0.28487556  0.38592149  0.80521400  1
  F  F1  1  0.21512444  0.61407851  0.30521400  1
  F  F2  1  0.71512444  0.88592149  0.19478600  1
  F  F3  1  0.78487556  0.11407851  0.69478600  1
  F  F4  1  0.71512444  0.61407851  0.19478600  1
  F  F5  1  0.78487556  0.38592149  0.69478600  1
  F  F6  1  0.28487556  0.11407851  0.80521400  1
  F  F7  1  0.21512444  0.88592149  0.30521400  1
  F  F8  1  0.00000000  0.00000000  0.00000000  1
  F  F9  1  0.50000000  0.00000000  0.50000000  1
  F  F10  1  0.00000000  0.50000000  0.00000000  1
  F  F11  1  0.50000000  0.50000000  0.50000000  1
  F  F12  1  0.09802783  0.25000000  0.57722742  1
  F  F13  1  0.40197217  0.75000000  0.07722742  1
  F  F14  1  0.90197217  0.75000000  0.42277258  1
  F  F15  1  0.59802783  0.25000000  0.92277258  1
  F  F16  1  0.00000000  0.00000000  0.50000000  1
  F  F17  1  0.50000000  0.00000000  -0.00000000  1
  F  F18  1  0.00000000  0.50000000  0.50000000  1
  F  F19  1  0.50000000  0.50000000  0.00000000  1
  F  F20  1  0.78234890  0.25000000  0.16917712  1
  F  F21  1  0.71765110  0.75000000  0.66917712  1
  F  F22  1  0.21765110  0.75000000  0.83082288  1
  F  F23  1  0.28234890  0.25000000  0.33082288  1
  Li  Li24  1  0.94740045  0.16946265  0.30078298  1
  Li  Li25  1  -0.44740045  -0.16946265  0.80078298  1
  Li  Li26  1  -0.94740045  0.66946265  -0.30078298  1
  Li  Li27  1  1.44740045  0.33053735  0.19921702  1
  Li  Li28  1  -0.94740045  -0.16946265  -0.30078298  1
  Li  Li29  1  1.44740045  0.16946265  0.19921702  1
  Li  Li30  1  0.94740045  0.33053735  0.30078298  1
  Li  Li31  1  -0.44740045  0.66946265  0.80078298  1
  Li  Li32  1  0.95154919  0.25000000  0.08267251  1
  Li  Li33  1  0.54845081  0.75000000  0.58267251  1
  Li  Li34  1  0.04845081  0.75000000  0.91732749  1
  Li  Li35  1  0.45154919  0.25000000  0.41732749  1
  Li  Li36  1  0.27423410  0.25000000  0.60330492  1
  Li  Li37  1  0.22576590  0.75000000  0.10330492  1
  Li  Li38  1  0.72576590  0.75000000  0.39669508  1
  Li  Li39  1  0.77423410  0.25000000  0.89669508  1
  Li  Li40  1  0.17675268  0.88338854  0.92845087  1
  Li  Li41  1  0.32324732  0.11661146  0.42845087  1
  Li  Li42  1  0.82324732  0.38338854  0.07154913  1
  Li  Li43  1  0.67675268  0.61661146  0.57154913  1
  Li  Li44  1  0.82324732  0.11661146  0.07154913  1
  Li  Li45  1  0.67675268  0.88338854  0.57154913  1
  Li  Li46  1  0.17675268  0.61661146  0.92845087  1
  Li  Li47  1  0.32324732  0.38338854  0.42845087  1
