# generated using pymatgen
data_LiF
_symmetry_space_group_name_H-M   'P 1'
_cell_length_a   9.37872221
_cell_length_b   9.37872221
_cell_length_c   20.13794588
_cell_angle_alpha   90.00000000
_cell_angle_beta   90.00000000
_cell_angle_gamma   120.00000000
_symmetry_Int_Tables_number   1
_chemical_formula_structural   LiF
_chemical_formula_sum   'Li42 F42'
_cell_volume   1534.02750453
_cell_formula_units_Z   42
loop_
 _symmetry_equiv_pos_site_id
 _symmetry_equiv_pos_as_xyz
  1  'x, y, z'
loop_
 _atom_site_type_symbol
 _atom_site_label
 _atom_site_symmetry_multiplicity
 _atom_site_fract_x
 _atom_site_fract_y
 _atom_site_fract_z
 _atom_site_occupancy
  F  F0  1  0.00000000  0.00000000  0.25000000  1
  F  F1  1  0.00000000  0.00000000  0.75000000  1
  F  F2  1  0.66666667  0.33333333  0.58333333  1
  F  F3  1  0.66666667  0.33333333  0.08333333  1
  F  F4  1  0.33333333  0.66666667  0.91666667  1
  F  F5  1  0.33333333  0.66666667  0.41666667  1
  F  F6  1  0.88653097  0.61111766  0.11344139  1
  F  F7  1  -0.61111766  0.27541331  0.11344139  1
  F  F8  1  -0.27541331  -0.88653097  0.11344139  1
  F  F9  1  0.61111766  0.88653097  0.38655861  1
  F  F10  1  0.27541331  -0.61111766  0.38655861  1
  F  F11  1  -0.88653097  -0.27541331  0.38655861  1
  F  F12  1  -0.88653097  -0.61111766  -0.11344139  1
  F  F13  1  0.61111766  -0.27541331  -0.11344139  1
  F  F14  1  0.27541331  0.88653097  -0.11344139  1
  F  F15  1  -0.61111766  -0.88653097  0.61344139  1
  F  F16  1  -0.27541331  0.61111766  0.61344139  1
  F  F17  1  0.88653097  0.27541331  0.61344139  1
  F  F18  1  1.55319764  0.94445100  0.44677472  1
  F  F19  1  0.05554900  0.60874664  0.44677472  1
  F  F20  1  0.39125336  -0.55319764  0.44677472  1
  F  F21  1  1.27778433  1.21986431  0.71989195  1
  F  F22  1  0.94207998  -0.27778433  0.71989195  1
  F  F23  1  -0.21986431  0.05792002  0.71989195  1
  F  F24  1  -0.21986431  -0.27778433  0.21989195  1
  F  F25  1  1.27778433  0.05792002  0.21989195  1
  F  F26  1  0.94207998  1.21986431  0.21989195  1
  F  F27  1  0.05554900  -0.55319764  0.94677472  1
  F  F28  1  0.39125336  0.94445100  0.94677472  1
  F  F29  1  1.55319764  0.60874664  0.94677472  1
  F  F30  1  1.21986431  1.27778433  0.78010805  1
  F  F31  1  -0.27778433  0.94207998  0.78010805  1
  F  F32  1  0.05792002  -0.21986431  0.78010805  1
  F  F33  1  0.94445100  1.55319764  1.05322528  1
  F  F34  1  0.60874664  0.05554900  1.05322528  1
  F  F35  1  -0.55319764  0.39125336  1.05322528  1
  F  F36  1  -0.55319764  0.05554900  0.55322528  1
  F  F37  1  0.94445100  0.39125336  0.55322528  1
  F  F38  1  0.60874664  1.55319764  0.55322528  1
  F  F39  1  -0.27778433  -0.21986431  1.28010805  1
  F  F40  1  0.05792002  1.27778433  1.28010805  1
  F  F41  1  1.21986431  0.94207998  1.28010805  1
  Li  Li42  1  0.00000000  0.00000000  0.00000000  1
  Li  Li43  1  0.00000000  0.00000000  0.50000000  1
  Li  Li44  1  0.66666667  0.33333333  0.33333333  1
  Li  Li45  1  0.66666667  0.33333333  0.83333333  1
  Li  Li46  1  0.33333333  0.66666667  0.66666667  1
  Li  Li47  1  0.33333333  0.66666667  0.16666667  1
  Li  Li48  1  0.59047496  0.00000000  0.25000000  1
  Li  Li49  1  0.00000000  0.59047496  0.25000000  1
  Li  Li50  1  0.40952504  0.40952504  0.25000000  1
  Li  Li51  1  0.40952504  0.00000000  0.75000000  1
  Li  Li52  1  0.00000000  0.40952504  0.75000000  1
  Li  Li53  1  0.59047496  0.59047496  0.75000000  1
  Li  Li54  1  0.25714163  0.33333333  0.58333333  1
  Li  Li55  1  0.66666667  0.92380829  0.58333333  1
  Li  Li56  1  0.07619171  0.74285837  0.58333333  1
  Li  Li57  1  0.07619171  0.33333333  0.08333333  1
  Li  Li58  1  0.66666667  0.74285837  0.08333333  1
  Li  Li59  1  0.25714163  0.92380829  0.08333333  1
  Li  Li60  1  0.92380829  0.66666667  0.91666667  1
  Li  Li61  1  0.33333333  0.25714163  0.91666667  1
  Li  Li62  1  0.74285837  0.07619171  0.91666667  1
  Li  Li63  1  0.74285837  0.66666667  0.41666667  1
  Li  Li64  1  0.33333333  0.07619171  0.41666667  1
  Li  Li65  1  0.92380829  0.25714163  0.41666667  1
  Li  Li66  1  0.50000000  0.00000000  -0.00000000  1
  Li  Li67  1  0.00000000  0.50000000  0.00000000  1
  Li  Li68  1  0.50000000  0.50000000  -0.00000000  1
  Li  Li69  1  0.00000000  0.50000000  0.50000000  1
  Li  Li70  1  0.50000000  0.00000000  0.50000000  1
  Li  Li71  1  0.50000000  0.50000000  0.50000000  1
  Li  Li72  1  0.16666667  0.33333333  0.33333333  1
  Li  Li73  1  0.66666667  0.83333333  0.33333333  1
  Li  Li74  1  0.16666667  0.83333333  0.33333333  1
  Li  Li75  1  0.66666667  0.83333333  0.83333333  1
  Li  Li76  1  0.16666667  0.33333333  0.83333333  1
  Li  Li77  1  0.16666667  0.83333333  0.83333333  1
  Li  Li78  1  0.83333333  0.66666667  0.66666667  1
  Li  Li79  1  0.33333333  0.16666667  0.66666667  1
  Li  Li80  1  0.83333333  0.16666667  0.66666667  1
  Li  Li81  1  0.33333333  0.16666667  0.16666667  1
  Li  Li82  1  0.83333333  0.66666667  0.16666667  1
  Li  Li83  1  0.83333333  0.16666667  0.16666667  1
