# generated using pymatgen
data_LiF
_symmetry_space_group_name_H-M   'P 1'
_cell_length_a   9.00476341
_cell_length_b   9.00476341
_cell_length_c   19.26096312
_cell_angle_alpha   90.00000000
_cell_angle_beta   90.00000000
_cell_angle_gamma   90.00000000
_symmetry_Int_Tables_number   1
_chemical_formula_structural   LiF
_chemical_formula_sum   'Li42 F42'
_cell_volume   1561.78991231
_cell_formula_units_Z   42
loop_
 _symmetry_equiv_pos_site_id
 _symmetry_equiv_pos_as_xyz
  1  'x, y, z'
loop_
 _atom_site_type_symbol
 _atom_site_label
 _atom_site_symmetry_multiplicity
 _atom_site_fract_x
 _atom_site_fract_y
 _atom_site_fract_z
 _atom_site_occupancy
  F  F0  1  0.06660406  0.06660406  0.50000000  1
  F  F1  1  0.93339594  0.93339594  0.50000000  1
  F  F2  1  0.93339594  0.06660406  0.50000000  1
  F  F3  1  0.06660406  0.93339594  0.50000000  1
  F  F4  1  0.77546081  0.29408219  0.33271948  1
  F  F5  1  0.22453919  0.70591781  0.33271948  1
  F  F6  1  0.70591781  0.77546081  0.33271948  1
  F  F7  1  0.29408219  0.22453919  0.33271948  1
  F  F8  1  0.22453919  0.29408219  0.66728052  1
  F  F9  1  0.77546081  0.70591781  0.66728052  1
  F  F10  1  0.29408219  0.77546081  0.66728052  1
  F  F11  1  0.70591781  0.22453919  0.66728052  1
  F  F12  1  0.22453919  0.70591781  0.66728052  1
  F  F13  1  0.77546081  0.29408219  0.66728052  1
  F  F14  1  0.29408219  0.22453919  0.66728052  1
  F  F15  1  0.70591781  0.77546081  0.66728052  1
  F  F16  1  0.77546081  0.70591781  0.33271948  1
  F  F17  1  0.22453919  0.29408219  0.33271948  1
  F  F18  1  0.70591781  0.22453919  0.33271948  1
  F  F19  1  0.29408219  0.77546081  0.33271948  1
  F  F20  1  0.93112048  0.00000000  0.50000000  1
  F  F21  1  0.06887952  0.00000000  0.50000000  1
  F  F22  1  0.00000000  0.93112048  0.50000000  1
  F  F23  1  0.00000000  0.06887952  0.50000000  1
  F  F24  1  0.00000000  0.50000000  0.00000000  1
  F  F25  1  0.50000000  0.00000000  0.00000000  1
  F  F26  1  0.87573681  0.00000000  0.22358641  1
  F  F27  1  0.12426319  -0.00000000  0.22358641  1
  F  F28  1  0.00000000  0.87573681  0.22358641  1
  F  F29  1  0.00000000  0.12426319  0.22358641  1
  F  F30  1  0.12426319  -0.00000000  0.77641359  1
  F  F31  1  0.87573681  0.00000000  0.77641359  1
  F  F32  1  0.00000000  0.87573681  0.77641359  1
  F  F33  1  0.00000000  0.12426319  0.77641359  1
  F  F34  1  0.93666341  0.00000000  -0.00000000  1
  F  F35  1  0.06333659  0.00000000  0.00000000  1
  F  F36  1  0.00000000  0.93666341  0.00000000  1
  F  F37  1  0.00000000  0.06333659  0.00000000  1
  F  F38  1  0.35361742  0.50000000  0.00000000  1
  F  F39  1  0.64638258  0.50000000  0.00000000  1
  F  F40  1  0.50000000  0.35361742  -0.00000000  1
  F  F41  1  0.50000000  0.64638258  0.00000000  1
  Li  Li42  1  0.00000000  0.00000000  0.16708908  1
  Li  Li43  1  0.00000000  0.00000000  0.83291092  1
  Li  Li44  1  0.68843119  0.00000000  0.50000000  1
  Li  Li45  1  0.31156881  0.00000000  0.50000000  1
  Li  Li46  1  0.00000000  0.68843119  0.50000000  1
  Li  Li47  1  0.00000000  0.31156881  0.50000000  1
  Li  Li48  1  0.10854787  0.50000000  0.50000000  1
  Li  Li49  1  0.89145213  0.50000000  0.50000000  1
  Li  Li50  1  0.50000000  0.10854787  0.50000000  1
  Li  Li51  1  0.50000000  0.89145213  0.50000000  1
  Li  Li52  1  0.76981210  0.00000000  -0.00000000  1
  Li  Li53  1  0.23018790  0.00000000  0.00000000  1
  Li  Li54  1  0.00000000  0.76981210  -0.00000000  1
  Li  Li55  1  0.00000000  0.23018790  0.00000000  1
  Li  Li56  1  0.00000000  0.50000000  0.83777725  1
  Li  Li57  1  0.50000000  0.00000000  0.83777725  1
  Li  Li58  1  0.00000000  0.50000000  0.16222275  1
  Li  Li59  1  0.50000000  0.00000000  0.16222275  1
  Li  Li60  1  0.83250703  0.39318705  0.07885923  1
  Li  Li61  1  -0.83250703  -0.39318705  0.07885923  1
  Li  Li62  1  -0.39318705  0.83250703  0.07885923  1
  Li  Li63  1  0.39318705  -0.83250703  0.07885923  1
  Li  Li64  1  -0.83250703  0.39318705  -0.07885923  1
  Li  Li65  1  0.83250703  -0.39318705  -0.07885923  1
  Li  Li66  1  0.39318705  0.83250703  -0.07885923  1
  Li  Li67  1  -0.39318705  -0.83250703  -0.07885923  1
  Li  Li68  1  -0.83250703  -0.39318705  -0.07885923  1
  Li  Li69  1  0.83250703  0.39318705  -0.07885923  1
  Li  Li70  1  0.39318705  -0.83250703  -0.07885923  1
  Li  Li71  1  -0.39318705  0.83250703  -0.07885923  1
  Li  Li72  1  0.83250703  -0.39318705  0.07885923  1
  Li  Li73  1  -0.83250703  0.39318705  0.07885923  1
  Li  Li74  1  -0.39318705  -0.83250703  0.07885923  1
  Li  Li75  1  0.39318705  0.83250703  0.07885923  1
  Li  Li76  1  0.11361913  0.11361913  0.78415686  1
  Li  Li77  1  0.88638087  0.88638087  0.78415686  1
  Li  Li78  1  0.88638087  0.11361913  0.78415686  1
  Li  Li79  1  0.11361913  0.88638087  0.78415686  1
  Li  Li80  1  0.88638087  0.11361913  0.21584314  1
  Li  Li81  1  0.11361913  0.88638087  0.21584314  1
  Li  Li82  1  0.11361913  0.11361913  0.21584314  1
  Li  Li83  1  0.88638087  0.88638087  0.21584314  1
