# generated using pymatgen
data_Li2Y2As3P2Se
_symmetry_space_group_name_H-M   'P 1'
_cell_length_a   4.55979734
_cell_length_b   4.74286671
_cell_length_c   6.63062789
_cell_angle_alpha   95.35375568
_cell_angle_beta   100.65975283
_cell_angle_gamma   108.65194282
_symmetry_Int_Tables_number   1
_chemical_formula_structural   Li2Y2As3P2Se
_chemical_formula_sum   'Li2 Y2 As3 P2 Se1'
_cell_volume   131.71923051
_cell_formula_units_Z   1
loop_
 _symmetry_equiv_pos_site_id
 _symmetry_equiv_pos_as_xyz
  1  'x, y, z'
loop_
 _atom_site_type_symbol
 _atom_site_label
 _atom_site_symmetry_multiplicity
 _atom_site_fract_x
 _atom_site_fract_y
 _atom_site_fract_z
 _atom_site_occupancy
  Se  Se0  1  0.00000000  0.00000000  0.00000000  1
  P  P1  1  0.50000000  0.50000000  0.50000000  1
  P  P2  1  0.25000000  0.25000000  0.25000000  1
  As  As3  1  0.75000000  0.25000000  0.00000000  1
  As  As4  1  0.25000000  0.75000000  0.50000000  1
  As  As5  1  0.86494203  0.98466651  0.57583416  1
  Li  Li6  1  0.65621866  0.25530321  0.95537258  1
  Li  Li7  1  0.76668537  0.18676331  0.86950055  1
  Y  Y8  1  0.58189590  0.54954706  0.00748670  1
  Y  Y9  1  0.36904929  0.53852372  0.32064645  1
