# generated using pymatgen
data_LiF
_symmetry_space_group_name_H-M   'P 1'
_cell_length_a   6.01585888
_cell_length_b   11.31567489
_cell_length_c   10.95814190
_cell_angle_alpha   90.00000000
_cell_angle_beta   90.00000000
_cell_angle_gamma   90.00000000
_symmetry_Int_Tables_number   1
_chemical_formula_structural   LiF
_chemical_formula_sum   'Li28 F28'
_cell_volume   745.95910818
_cell_formula_units_Z   28
loop_
 _symmetry_equiv_pos_site_id
 _symmetry_equiv_pos_as_xyz
  1  'x, y, z'
loop_
 _atom_site_type_symbol
 _atom_site_label
 _atom_site_symmetry_multiplicity
 _atom_site_fract_x
 _atom_site_fract_y
 _atom_site_fract_z
 _atom_site_occupancy
  F  F0  1  0.08992210  0.25000000  0.55673745  1
  F  F1  1  0.41007790  0.75000000  0.05673745  1
  F  F2  1  0.91007790  0.75000000  0.44326255  1
  F  F3  1  0.58992210  0.25000000  0.94326255  1
  F  F4  1  0.12286144  0.25000000  0.02153867  1
  F  F5  1  0.37713856  0.75000000  0.52153867  1
  F  F6  1  0.87713856  0.75000000  0.97846133  1
  F  F7  1  0.62286144  0.25000000  0.47846133  1
  F  F8  1  0.67501133  0.25000000  0.20376949  1
  F  F9  1  0.82498867  0.75000000  0.70376949  1
  F  F10  1  0.32498867  0.75000000  0.79623051  1
  F  F11  1  0.17501133  0.25000000  0.29623051  1
  F  F12  1  0.62587993  0.13971048  0.52699877  1
  F  F13  1  0.87412007  0.86028952  0.02699877  1
  F  F14  1  0.37412007  0.63971048  0.47300123  1
  F  F15  1  0.12587993  0.36028952  0.97300123  1
  F  F16  1  0.37412007  0.86028952  0.47300123  1
  F  F17  1  0.12587993  0.13971048  0.97300123  1
  F  F18  1  0.62587993  0.36028952  0.52699877  1
  F  F19  1  0.87412007  0.63971048  0.02699877  1
  F  F20  1  0.01427232  0.25000000  0.84890792  1
  F  F21  1  0.48572768  0.75000000  0.34890792  1
  F  F22  1  0.98572768  0.75000000  0.15109208  1
  F  F23  1  0.51427232  0.25000000  0.65109208  1
  F  F24  1  0.00000000  0.00000000  0.50000000  1
  F  F25  1  0.50000000  0.00000000  0.00000000  1
  F  F26  1  0.00000000  0.50000000  0.50000000  1
  F  F27  1  0.50000000  0.50000000  0.00000000  1
  Li  Li28  1  0.00000000  0.00000000  0.00000000  1
  Li  Li29  1  0.50000000  0.00000000  0.50000000  1
  Li  Li30  1  0.00000000  0.50000000  0.00000000  1
  Li  Li31  1  0.50000000  0.50000000  0.50000000  1
  Li  Li32  1  0.65519680  0.09451640  0.70832201  1
  Li  Li33  1  -0.15519680  -0.09451640  1.20832201  1
  Li  Li34  1  -0.65519680  0.59451640  -0.70832201  1
  Li  Li35  1  1.15519680  0.40548360  -0.20832201  1
  Li  Li36  1  -0.65519680  -0.09451640  -0.70832201  1
  Li  Li37  1  1.15519680  0.09451640  -0.20832201  1
  Li  Li38  1  0.65519680  0.40548360  0.70832201  1
  Li  Li39  1  -0.15519680  0.59451640  1.20832201  1
  Li  Li40  1  0.33213600  0.60059502  0.98579163  1
  Li  Li41  1  0.16786400  0.39940498  0.48579163  1
  Li  Li42  1  0.66786400  0.10059502  0.01420837  1
  Li  Li43  1  0.83213600  0.89940498  0.51420837  1
  Li  Li44  1  0.66786400  0.39940498  0.01420837  1
  Li  Li45  1  0.83213600  0.60059502  0.51420837  1
  Li  Li46  1  0.33213600  0.89940498  0.98579163  1
  Li  Li47  1  0.16786400  0.10059502  0.48579163  1
  Li  Li48  1  0.33500534  0.03354181  0.76981725  1
  Li  Li49  1  0.16499466  0.96645819  0.26981725  1
  Li  Li50  1  0.66499466  0.53354181  0.23018275  1
  Li  Li51  1  0.83500534  0.46645819  0.73018275  1
  Li  Li52  1  0.66499466  0.96645819  0.23018275  1
  Li  Li53  1  0.83500534  0.03354181  0.73018275  1
  Li  Li54  1  0.33500534  0.46645819  0.76981725  1
  Li  Li55  1  0.16499466  0.53354181  0.26981725  1
