# generated using pymatgen
data_LiYAs2P
_symmetry_space_group_name_H-M   'P 1'
_cell_length_a   5.03925815
_cell_length_b   5.25404502
_cell_length_c   7.04128836
_cell_angle_alpha   94.76599611
_cell_angle_beta   100.37934869
_cell_angle_gamma   109.14311216
_symmetry_Int_Tables_number   1
_chemical_formula_structural   LiYAs2P
_chemical_formula_sum   'Li2 Y2 As4 P2'
_cell_volume   171.19813594
_cell_formula_units_Z   2
loop_
 _symmetry_equiv_pos_site_id
 _symmetry_equiv_pos_as_xyz
  1  'x, y, z'
loop_
 _atom_site_type_symbol
 _atom_site_label
 _atom_site_symmetry_multiplicity
 _atom_site_fract_x
 _atom_site_fract_y
 _atom_site_fract_z
 _atom_site_occupancy
  Y  Y0  1  0.12500000  0.12500000  0.12500000  1
  Y  Y1  1  0.50000000  0.50000000  0.50000000  1
  P  P2  1  0.25000000  0.25000000  0.25000000  1
  P  P3  1  0.75000000  0.75000000  0.75000000  1
  As  As4  1  0.56689683  0.46939936  0.40984597  1
  As  As5  1  0.63757596  0.25809152  0.48351233  1
  As  As6  1  0.01851505  0.43666641  0.07166097  1
  As  As7  1  0.46298734  0.04915386  0.25548559  1
  Li  Li8  1  0.21580973  0.16914891  0.45631757  1
  Li  Li9  1  0.71742472  0.70945534  0.98832522  1
