# generated using pymatgen
data_LiCaF3
_symmetry_space_group_name_H-M   'P 1'
_cell_length_a   11.03496288
_cell_length_b   11.03496288
_cell_length_c   18.35596268
_cell_angle_alpha   90.00000000
_cell_angle_beta   90.00000000
_cell_angle_gamma   120.00000000
_symmetry_Int_Tables_number   1
_chemical_formula_structural   LiCaF3
_chemical_formula_sum   'Li18 Ca18 F54'
_cell_volume   1935.75126022
_cell_formula_units_Z   18
loop_
 _symmetry_equiv_pos_site_id
 _symmetry_equiv_pos_as_xyz
  1  'x, y, z'
loop_
 _atom_site_type_symbol
 _atom_site_label
 _atom_site_symmetry_multiplicity
 _atom_site_fract_x
 _atom_site_fract_y
 _atom_site_fract_z
 _atom_site_occupancy
  Ca  Ca0  1  0.00000000  0.00000000  0.13333145  1
  Ca  Ca1  1  0.00000000  0.00000000  0.36666855  1
  Ca  Ca2  1  0.00000000  0.00000000  0.86666855  1
  Ca  Ca3  1  0.00000000  0.00000000  0.63333145  1
  Ca  Ca4  1  0.66666667  0.33333333  0.46666478  1
  Ca  Ca5  1  0.66666667  0.33333333  0.70000188  1
  Ca  Ca6  1  0.66666667  0.33333333  0.20000188  1
  Ca  Ca7  1  0.66666667  0.33333333  0.96666478  1
  Ca  Ca8  1  0.33333333  0.66666667  0.79999812  1
  Ca  Ca9  1  0.33333333  0.66666667  0.03333522  1
  Ca  Ca10  1  0.33333333  0.66666667  0.53333522  1
  Ca  Ca11  1  0.33333333  0.66666667  0.29999812  1
  Ca  Ca12  1  0.00000000  0.00000000  0.25000000  1
  Ca  Ca13  1  0.00000000  0.00000000  0.75000000  1
  Ca  Ca14  1  0.66666667  0.33333333  0.58333333  1
  Ca  Ca15  1  0.66666667  0.33333333  0.08333333  1
  Ca  Ca16  1  0.33333333  0.66666667  0.91666667  1
  Ca  Ca17  1  0.33333333  0.66666667  0.41666667  1
  F  F18  1  0.50000000  0.00000000  0.00000000  1
  F  F19  1  0.00000000  0.50000000  0.00000000  1
  F  F20  1  0.50000000  0.50000000  0.00000000  1
  F  F21  1  0.00000000  0.50000000  0.50000000  1
  F  F22  1  0.50000000  0.00000000  0.50000000  1
  F  F23  1  0.50000000  0.50000000  0.50000000  1
  F  F24  1  0.16666667  0.33333333  0.33333333  1
  F  F25  1  0.66666667  0.83333333  0.33333333  1
  F  F26  1  0.16666667  0.83333333  0.33333333  1
  F  F27  1  0.66666667  0.83333333  0.83333333  1
  F  F28  1  0.16666667  0.33333333  0.83333333  1
  F  F29  1  0.16666667  0.83333333  0.83333333  1
  F  F30  1  0.83333333  0.66666667  0.66666667  1
  F  F31  1  0.33333333  0.16666667  0.66666667  1
  F  F32  1  0.83333333  0.16666667  0.66666667  1
  F  F33  1  0.33333333  0.16666667  0.16666667  1
  F  F34  1  0.83333333  0.66666667  0.16666667  1
  F  F35  1  0.83333333  0.16666667  0.16666667  1
  F  F36  1  0.75256475  0.51554468  0.13958855  1
  F  F37  1  -0.51554468  0.23702007  0.13958855  1
  F  F38  1  -0.23702007  -0.75256475  0.13958855  1
  F  F39  1  0.51554468  0.75256475  0.36041145  1
  F  F40  1  0.23702007  -0.51554468  0.36041145  1
  F  F41  1  -0.75256475  -0.23702007  0.36041145  1
  F  F42  1  -0.75256475  -0.51554468  -0.13958855  1
  F  F43  1  0.51554468  -0.23702007  -0.13958855  1
  F  F44  1  0.23702007  0.75256475  -0.13958855  1
  F  F45  1  -0.51554468  -0.75256475  0.63958855  1
  F  F46  1  -0.23702007  0.51554468  0.63958855  1
  F  F47  1  0.75256475  0.23702007  0.63958855  1
  F  F48  1  1.41923142  0.84887801  0.47292188  1
  F  F49  1  0.15112199  0.57035341  0.47292188  1
  F  F50  1  0.42964659  -0.41923142  0.47292188  1
  F  F51  1  1.18221134  1.08589808  0.69374478  1
  F  F52  1  0.90368674  -0.18221134  0.69374478  1
  F  F53  1  -0.08589808  0.09631326  0.69374478  1
  F  F54  1  -0.08589808  -0.18221134  0.19374478  1
  F  F55  1  1.18221134  0.09631326  0.19374478  1
  F  F56  1  0.90368674  1.08589808  0.19374478  1
  F  F57  1  0.15112199  -0.41923142  0.97292188  1
  F  F58  1  0.42964659  0.84887801  0.97292188  1
  F  F59  1  1.41923142  0.57035341  0.97292188  1
  F  F60  1  1.08589808  1.18221134  0.80625522  1
  F  F61  1  -0.18221134  0.90368674  0.80625522  1
  F  F62  1  0.09631326  -0.08589808  0.80625522  1
  F  F63  1  0.84887801  1.41923142  1.02707812  1
  F  F64  1  0.57035341  0.15112199  1.02707812  1
  F  F65  1  -0.41923142  0.42964659  1.02707812  1
  F  F66  1  -0.41923142  0.15112199  0.52707812  1
  F  F67  1  0.84887801  0.42964659  0.52707812  1
  F  F68  1  0.57035341  1.41923142  0.52707812  1
  F  F69  1  -0.18221134  -0.08589808  1.30625522  1
  F  F70  1  0.09631326  1.18221134  1.30625522  1
  F  F71  1  1.08589808  0.90368674  1.30625522  1
  Li  Li72  1  0.51743253  0.00000000  0.25000000  1
  Li  Li73  1  0.00000000  0.51743253  0.25000000  1
  Li  Li74  1  0.48256747  0.48256747  0.25000000  1
  Li  Li75  1  0.48256747  0.00000000  0.75000000  1
  Li  Li76  1  0.00000000  0.48256747  0.75000000  1
  Li  Li77  1  0.51743253  0.51743253  0.75000000  1
  Li  Li78  1  0.18409920  0.33333333  0.58333333  1
  Li  Li79  1  0.66666667  0.85076587  0.58333333  1
  Li  Li80  1  0.14923413  0.81590080  0.58333333  1
  Li  Li81  1  0.14923413  0.33333333  0.08333333  1
  Li  Li82  1  0.66666667  0.81590080  0.08333333  1
  Li  Li83  1  0.18409920  0.85076587  0.08333333  1
  Li  Li84  1  0.85076587  0.66666667  0.91666667  1
  Li  Li85  1  0.33333333  0.18409920  0.91666667  1
  Li  Li86  1  0.81590080  0.14923413  0.91666667  1
  Li  Li87  1  0.81590080  0.66666667  0.41666667  1
  Li  Li88  1  0.33333333  0.14923413  0.41666667  1
  Li  Li89  1  0.85076587  0.18409920  0.41666667  1
