# generated using pymatgen
data_LiF
_symmetry_space_group_name_H-M   'P 1'
_cell_length_a   9.81219817
_cell_length_b   9.81219817
_cell_length_c   13.14016883
_cell_angle_alpha   90.00000000
_cell_angle_beta   90.00000000
_cell_angle_gamma   120.00000000
_symmetry_Int_Tables_number   1
_chemical_formula_structural   LiF
_chemical_formula_sum   'Li48 F48'
_cell_volume   1095.63071383
_cell_formula_units_Z   48
loop_
 _symmetry_equiv_pos_site_id
 _symmetry_equiv_pos_as_xyz
  1  'x, y, z'
loop_
 _atom_site_type_symbol
 _atom_site_label
 _atom_site_symmetry_multiplicity
 _atom_site_fract_x
 _atom_site_fract_y
 _atom_site_fract_z
 _atom_site_occupancy
  F  F0  1  0.14596957  0.60206917  0.89515298  1
  F  F1  1  -0.60206917  -0.45609960  0.89515298  1
  F  F2  1  0.45609960  -0.14596957  0.89515298  1
  F  F3  1  0.60206917  0.14596957  -0.39515298  1
  F  F4  1  -0.45609960  -0.60206917  -0.39515298  1
  F  F5  1  -0.14596957  0.45609960  -0.39515298  1
  F  F6  1  -0.14596957  -0.60206917  -0.89515298  1
  F  F7  1  0.60206917  0.45609960  -0.89515298  1
  F  F8  1  -0.45609960  0.14596957  -0.89515298  1
  F  F9  1  -0.60206917  -0.14596957  1.39515298  1
  F  F10  1  0.45609960  0.60206917  1.39515298  1
  F  F11  1  0.14596957  -0.45609960  1.39515298  1
  F  F12  1  0.81263624  0.93540250  1.22848631  1
  F  F13  1  0.06459750  -0.12276626  1.22848631  1
  F  F14  1  1.12276626  0.18736376  1.22848631  1
  F  F15  1  1.26873584  0.47930291  -0.06181964  1
  F  F16  1  0.21056707  -0.26873584  -0.06181964  1
  F  F17  1  0.52069709  0.78943293  -0.06181964  1
  F  F18  1  0.52069709  -0.26873584  -0.56181964  1
  F  F19  1  1.26873584  0.78943293  -0.56181964  1
  F  F20  1  0.21056707  0.47930291  -0.56181964  1
  F  F21  1  0.06459750  0.18736376  1.72848631  1
  F  F22  1  1.12276626  0.93540250  1.72848631  1
  F  F23  1  0.81263624  -0.12276626  1.72848631  1
  F  F24  1  0.47930291  1.26873584  1.56181964  1
  F  F25  1  -0.26873584  0.21056707  1.56181964  1
  F  F26  1  0.78943293  0.52069709  1.56181964  1
  F  F27  1  0.93540250  0.81263624  0.27151369  1
  F  F28  1  -0.12276626  0.06459750  0.27151369  1
  F  F29  1  0.18736376  1.12276626  0.27151369  1
  F  F30  1  0.18736376  0.06459750  -0.22848631  1
  F  F31  1  0.93540250  1.12276626  -0.22848631  1
  F  F32  1  -0.12276626  0.81263624  -0.22848631  1
  F  F33  1  -0.26873584  0.52069709  2.06181964  1
  F  F34  1  0.78943293  1.26873584  2.06181964  1
  F  F35  1  0.47930291  0.21056707  2.06181964  1
  F  F36  1  0.00000000  0.00000000  0.63352898  1
  F  F37  1  0.00000000  0.00000000  0.86647102  1
  F  F38  1  0.00000000  0.00000000  0.36647102  1
  F  F39  1  0.00000000  0.00000000  0.13352898  1
  F  F40  1  0.66666667  0.33333333  0.96686232  1
  F  F41  1  0.66666667  0.33333333  0.19980435  1
  F  F42  1  0.66666667  0.33333333  0.69980435  1
  F  F43  1  0.66666667  0.33333333  0.46686232  1
  F  F44  1  0.33333333  0.66666667  0.30019565  1
  F  F45  1  0.33333333  0.66666667  0.53313768  1
  F  F46  1  0.33333333  0.66666667  0.03313768  1
  F  F47  1  0.33333333  0.66666667  0.80019565  1
  Li  Li48  1  0.40257780  0.00000000  0.25000000  1
  Li  Li49  1  0.00000000  0.40257780  0.25000000  1
  Li  Li50  1  0.59742220  0.59742220  0.25000000  1
  Li  Li51  1  0.59742220  0.00000000  0.75000000  1
  Li  Li52  1  0.00000000  0.59742220  0.75000000  1
  Li  Li53  1  0.40257780  0.40257780  0.75000000  1
  Li  Li54  1  0.06924447  0.33333333  0.58333333  1
  Li  Li55  1  0.66666667  0.73591114  0.58333333  1
  Li  Li56  1  0.26408886  0.93075553  0.58333333  1
  Li  Li57  1  0.26408886  0.33333333  0.08333333  1
  Li  Li58  1  0.66666667  0.93075553  0.08333333  1
  Li  Li59  1  0.06924447  0.73591114  0.08333333  1
  Li  Li60  1  0.73591114  0.66666667  0.91666667  1
  Li  Li61  1  0.33333333  0.06924447  0.91666667  1
  Li  Li62  1  0.93075553  0.26408886  0.91666667  1
  Li  Li63  1  0.93075553  0.66666667  0.41666667  1
  Li  Li64  1  0.33333333  0.26408886  0.41666667  1
  Li  Li65  1  0.73591114  0.06924447  0.41666667  1
  Li  Li66  1  0.50000000  0.00000000  -0.00000000  1
  Li  Li67  1  0.00000000  0.50000000  0.00000000  1
  Li  Li68  1  0.50000000  0.50000000  -0.00000000  1
  Li  Li69  1  0.00000000  0.50000000  0.50000000  1
  Li  Li70  1  0.50000000  0.00000000  0.50000000  1
  Li  Li71  1  0.50000000  0.50000000  0.50000000  1
  Li  Li72  1  0.16666667  0.33333333  0.33333333  1
  Li  Li73  1  0.66666667  0.83333333  0.33333333  1
  Li  Li74  1  0.16666667  0.83333333  0.33333333  1
  Li  Li75  1  0.66666667  0.83333333  0.83333333  1
  Li  Li76  1  0.16666667  0.33333333  0.83333333  1
  Li  Li77  1  0.16666667  0.83333333  0.83333333  1
  Li  Li78  1  0.83333333  0.66666667  0.66666667  1
  Li  Li79  1  0.33333333  0.16666667  0.66666667  1
  Li  Li80  1  0.83333333  0.16666667  0.66666667  1
  Li  Li81  1  0.33333333  0.16666667  0.16666667  1
  Li  Li82  1  0.83333333  0.66666667  0.16666667  1
  Li  Li83  1  0.83333333  0.16666667  0.16666667  1
  Li  Li84  1  0.00000000  0.00000000  0.25000000  1
  Li  Li85  1  0.00000000  0.00000000  0.75000000  1
  Li  Li86  1  0.66666667  0.33333333  0.58333333  1
  Li  Li87  1  0.66666667  0.33333333  0.08333333  1
  Li  Li88  1  0.33333333  0.66666667  0.91666667  1
  Li  Li89  1  0.33333333  0.66666667  0.41666667  1
  Li  Li90  1  0.00000000  0.00000000  0.00000000  1
  Li  Li91  1  0.00000000  0.00000000  0.50000000  1
  Li  Li92  1  0.66666667  0.33333333  0.33333333  1
  Li  Li93  1  0.66666667  0.33333333  0.83333333  1
  Li  Li94  1  0.33333333  0.66666667  0.66666667  1
  Li  Li95  1  0.33333333  0.66666667  0.16666667  1
