# generated using pymatgen
data_Li2Ca3F8
_symmetry_space_group_name_H-M   'P 1'
_cell_length_a   15.93046851
_cell_length_b   15.93046851
_cell_length_c   8.56499179
_cell_angle_alpha   90.00000000
_cell_angle_beta   90.00000000
_cell_angle_gamma   120.00000000
_symmetry_Int_Tables_number   1
_chemical_formula_structural   Li2Ca3F8
_chemical_formula_sum   'Li16 Ca24 F64'
_cell_volume   1882.41198578
_cell_formula_units_Z   8
loop_
 _symmetry_equiv_pos_site_id
 _symmetry_equiv_pos_as_xyz
  1  'x, y, z'
loop_
 _atom_site_type_symbol
 _atom_site_label
 _atom_site_symmetry_multiplicity
 _atom_site_fract_x
 _atom_site_fract_y
 _atom_site_fract_z
 _atom_site_occupancy
  Ca  Ca0  1  0.62328770  0.21081805  0.75942945  1
  Ca  Ca1  1  0.78918195  0.41246966  0.75942945  1
  Ca  Ca2  1  0.58753034  0.37671230  0.75942945  1
  Ca  Ca3  1  0.62328770  0.21081805  0.24057055  1
  Ca  Ca4  1  0.78918195  0.41246966  0.24057055  1
  Ca  Ca5  1  0.58753034  0.37671230  0.24057055  1
  Ca  Ca6  1  0.21081805  0.62328770  0.24057055  1
  Ca  Ca7  1  0.41246966  0.78918195  0.24057055  1
  Ca  Ca8  1  0.37671230  0.58753034  0.24057055  1
  Ca  Ca9  1  0.21081805  0.62328770  0.75942945  1
  Ca  Ca10  1  0.41246966  0.78918195  0.75942945  1
  Ca  Ca11  1  0.37671230  0.58753034  0.75942945  1
  Ca  Ca12  1  0.80167454  0.00000000  0.11465225  1
  Ca  Ca13  1  0.00000000  0.80167454  0.11465225  1
  Ca  Ca14  1  0.19832546  0.19832546  0.11465225  1
  Ca  Ca15  1  0.80167454  0.00000000  0.88534775  1
  Ca  Ca16  1  0.00000000  0.80167454  0.88534775  1
  Ca  Ca17  1  0.19832546  0.19832546  0.88534775  1
  Ca  Ca18  1  0.72268139  0.61395982  0.50000000  1
  Ca  Ca19  1  0.38604018  0.10872157  0.50000000  1
  Ca  Ca20  1  0.89127843  0.27731861  0.50000000  1
  Ca  Ca21  1  0.61395982  0.72268139  0.50000000  1
  Ca  Ca22  1  0.10872157  0.38604018  0.50000000  1
  Ca  Ca23  1  0.27731861  0.89127843  0.50000000  1
  F  F24  1  0.82888495  0.23646162  0.26647071  1
  F  F25  1  -0.23646162  0.59242333  0.26647071  1
  F  F26  1  -0.59242333  -0.82888495  0.26647071  1
  F  F27  1  0.82888495  0.23646162  -0.26647071  1
  F  F28  1  -0.23646162  0.59242333  -0.26647071  1
  F  F29  1  -0.59242333  -0.82888495  -0.26647071  1
  F  F30  1  0.23646162  0.82888495  -0.26647071  1
  F  F31  1  0.59242333  -0.23646162  -0.26647071  1
  F  F32  1  -0.82888495  -0.59242333  -0.26647071  1
  F  F33  1  0.23646162  0.82888495  0.26647071  1
  F  F34  1  0.59242333  -0.23646162  0.26647071  1
  F  F35  1  -0.82888495  -0.59242333  0.26647071  1
  F  F36  1  0.90720253  0.00000000  0.56963353  1
  F  F37  1  0.00000000  0.90720253  0.56963353  1
  F  F38  1  0.09279747  0.09279747  0.56963353  1
  F  F39  1  0.90720253  0.00000000  0.43036647  1
  F  F40  1  0.00000000  0.90720253  0.43036647  1
  F  F41  1  0.09279747  0.09279747  0.43036647  1
  F  F42  1  0.33333333  0.66666667  0.00000000  1
  F  F43  1  0.66666667  0.33333333  0.00000000  1
  F  F44  1  0.02367804  0.97743699  0.84413110  1
  F  F45  1  0.02256301  0.04624105  0.84413110  1
  F  F46  1  0.95375895  0.97632196  0.84413110  1
  F  F47  1  0.02367804  0.97743699  0.15586890  1
  F  F48  1  0.02256301  0.04624105  0.15586890  1
  F  F49  1  0.95375895  0.97632196  0.15586890  1
  F  F50  1  0.97743699  0.02367804  0.15586890  1
  F  F51  1  0.04624105  0.02256301  0.15586890  1
  F  F52  1  0.97632196  0.95375895  0.15586890  1
  F  F53  1  0.97743699  0.02367804  0.84413110  1
  F  F54  1  0.04624105  0.02256301  0.84413110  1
  F  F55  1  0.97632196  0.95375895  0.84413110  1
  F  F56  1  0.45633681  0.00000000  0.60857509  1
  F  F57  1  0.00000000  0.45633681  0.60857509  1
  F  F58  1  0.54366319  0.54366319  0.60857509  1
  F  F59  1  0.45633681  0.00000000  0.39142491  1
  F  F60  1  0.00000000  0.45633681  0.39142491  1
  F  F61  1  0.54366319  0.54366319  0.39142491  1
  F  F62  1  0.72581362  0.00000000  0.50000000  1
  F  F63  1  0.00000000  0.72581362  0.50000000  1
  F  F64  1  0.27418638  0.27418638  0.50000000  1
  F  F65  1  0.94130050  0.90469365  0.00000000  1
  F  F66  1  0.09530635  0.03660684  0.00000000  1
  F  F67  1  0.96339316  0.05869950  0.00000000  1
  F  F68  1  0.90469365  0.94130050  0.00000000  1
  F  F69  1  0.03660684  0.09530635  0.00000000  1
  F  F70  1  0.05869950  0.96339316  0.00000000  1
  F  F71  1  0.19169156  0.03252091  0.25459043  1
  F  F72  1  0.96747909  0.15917065  0.25459043  1
  F  F73  1  0.84082935  0.80830844  0.25459043  1
  F  F74  1  0.19169156  0.03252091  0.74540957  1
  F  F75  1  0.96747909  0.15917065  0.74540957  1
  F  F76  1  0.84082935  0.80830844  0.74540957  1
  F  F77  1  0.03252091  0.19169156  0.74540957  1
  F  F78  1  0.15917065  0.96747909  0.74540957  1
  F  F79  1  0.80830844  0.84082935  0.74540957  1
  F  F80  1  0.03252091  0.19169156  0.25459043  1
  F  F81  1  0.15917065  0.96747909  0.25459043  1
  F  F82  1  0.80830844  0.84082935  0.25459043  1
  F  F83  1  0.33333333  0.66666667  0.73500681  1
  F  F84  1  0.33333333  0.66666667  0.26499319  1
  F  F85  1  0.66666667  0.33333333  0.26499319  1
  F  F86  1  0.66666667  0.33333333  0.73500681  1
  F  F87  1  0.00000000  0.00000000  0.00000000  1
  Li  Li88  1  0.39905941  0.00000000  -0.00000000  1
  Li  Li89  1  0.00000000  0.39905941  -0.00000000  1
  Li  Li90  1  0.60094059  0.60094059  0.00000000  1
  Li  Li91  1  0.50155266  0.00000000  0.00000000  1
  Li  Li92  1  0.00000000  0.50155266  0.00000000  1
  Li  Li93  1  0.49844734  0.49844734  0.00000000  1
  Li  Li94  1  0.16328443  0.00000000  0.00000000  1
  Li  Li95  1  0.00000000  0.16328443  0.00000000  1
  Li  Li96  1  0.83671557  0.83671557  0.00000000  1
  Li  Li97  1  0.59819627  0.00000000  0.00000000  1
  Li  Li98  1  0.00000000  0.59819627  0.00000000  1
  Li  Li99  1  0.40180373  0.40180373  0.00000000  1
  Li  Li100  1  0.30762246  0.00000000  0.50000000  1
  Li  Li101  1  0.00000000  0.30762246  0.50000000  1
  Li  Li102  1  0.69237754  0.69237754  0.50000000  1
  Li  Li103  1  0.00000000  0.00000000  0.50000000  1
