# generated using pymatgen
data_Li2Y2P3Se
_symmetry_space_group_name_H-M   'P 1'
_cell_length_a   4.71837138
_cell_length_b   4.92278019
_cell_length_c   6.82061330
_cell_angle_alpha   95.08626042
_cell_angle_beta   100.55963388
_cell_angle_gamma   109.61840537
_symmetry_Int_Tables_number   1
_chemical_formula_structural   Li2Y2P3Se
_chemical_formula_sum   'Li2 Y2 P3 Se1'
_cell_volume   144.75957187
_cell_formula_units_Z   1
loop_
 _symmetry_equiv_pos_site_id
 _symmetry_equiv_pos_as_xyz
  1  'x, y, z'
loop_
 _atom_site_type_symbol
 _atom_site_label
 _atom_site_symmetry_multiplicity
 _atom_site_fract_x
 _atom_site_fract_y
 _atom_site_fract_z
 _atom_site_occupancy
  Se  Se0  1  0.00000000  0.00000000  0.00000000  1
  Y  Y1  1  0.33300000  0.66700000  0.25000000  1
  Y  Y2  1  0.66700000  0.33300000  0.50000000  1
  P  P3  1  0.00000000  0.00000000  0.75000000  1
  P  P4  1  0.04569772  0.25453655  0.54324901  1
  P  P5  1  0.72644317  0.18988463  0.13958471  1
  Li  Li6  1  0.47776154  0.27086694  0.90261783  1
  Li  Li7  1  0.59770530  0.81805380  0.94021499  1
