# generated using pymatgen
data_LiF
_symmetry_space_group_name_H-M   'P 1'
_cell_length_a   9.15129553
_cell_length_b   9.15129553
_cell_length_c   7.44105391
_cell_angle_alpha   90.00000000
_cell_angle_beta   90.00000000
_cell_angle_gamma   120.00000000
_symmetry_Int_Tables_number   1
_chemical_formula_structural   LiF
_chemical_formula_sum   'Li22 F22'
_cell_volume   539.67244399
_cell_formula_units_Z   22
loop_
 _symmetry_equiv_pos_site_id
 _symmetry_equiv_pos_as_xyz
  1  'x, y, z'
loop_
 _atom_site_type_symbol
 _atom_site_label
 _atom_site_symmetry_multiplicity
 _atom_site_fract_x
 _atom_site_fract_y
 _atom_site_fract_z
 _atom_site_occupancy
  F  F0  1  0.50000000  -0.00000000  0.00000000  1
  F  F1  1  0.00000000  0.50000000  0.00000000  1
  F  F2  1  0.50000000  0.50000000  0.00000000  1
  F  F3  1  0.50000000  -0.00000000  0.50000000  1
  F  F4  1  0.00000000  0.50000000  0.50000000  1
  F  F5  1  0.50000000  0.50000000  0.50000000  1
  F  F6  1  0.77913815  0.91455753  0.48181517  1
  F  F7  1  0.08544247  0.86458061  0.48181517  1
  F  F8  1  0.13541939  0.22086185  0.48181517  1
  F  F9  1  0.22086185  0.08544247  0.98181517  1
  F  F10  1  0.91455753  0.13541939  0.98181517  1
  F  F11  1  0.86458061  0.77913815  0.98181517  1
  F  F12  1  0.22086185  0.08544247  0.51818483  1
  F  F13  1  0.91455753  0.13541939  0.51818483  1
  F  F14  1  0.86458061  0.77913815  0.51818483  1
  F  F15  1  0.77913815  0.91455753  0.01818483  1
  F  F16  1  0.08544247  0.86458061  0.01818483  1
  F  F17  1  0.13541939  0.22086185  0.01818483  1
  F  F18  1  0.00000000  0.00000000  0.00000000  1
  F  F19  1  0.00000000  0.00000000  0.50000000  1
  F  F20  1  0.33333333  0.66666667  0.25000000  1
  F  F21  1  0.66666667  0.33333333  0.75000000  1
  Li  Li22  1  0.94049256  0.59923987  0.00095829  1
  Li  Li23  1  -0.59923987  0.34125269  0.00095829  1
  Li  Li24  1  -0.34125269  -0.94049256  0.00095829  1
  Li  Li25  1  -0.94049256  -0.59923987  0.50095829  1
  Li  Li26  1  0.59923987  -0.34125269  0.50095829  1
  Li  Li27  1  0.34125269  0.94049256  0.50095829  1
  Li  Li28  1  -0.94049256  -0.59923987  -0.00095829  1
  Li  Li29  1  0.59923987  -0.34125269  -0.00095829  1
  Li  Li30  1  0.34125269  0.94049256  -0.00095829  1
  Li  Li31  1  0.94049256  0.59923987  0.49904171  1
  Li  Li32  1  -0.59923987  0.34125269  0.49904171  1
  Li  Li33  1  -0.34125269  -0.94049256  0.49904171  1
  Li  Li34  1  0.66666667  0.33333333  0.25000000  1
  Li  Li35  1  0.33333333  0.66666667  0.75000000  1
  Li  Li36  1  0.00000000  0.00000000  0.35578760  1
  Li  Li37  1  0.00000000  0.00000000  0.85578760  1
  Li  Li38  1  0.00000000  0.00000000  0.64421240  1
  Li  Li39  1  0.00000000  0.00000000  0.14421240  1
  Li  Li40  1  0.33333333  0.66666667  0.53039440  1
  Li  Li41  1  0.66666667  0.33333333  0.03039440  1
  Li  Li42  1  0.66666667  0.33333333  0.46960560  1
  Li  Li43  1  0.33333333  0.66666667  0.96960560  1
