# generated using pymatgen
data_LiY2Sb2(Te2P)2
_symmetry_space_group_name_H-M   'P 1'
_cell_length_a   5.16858304
_cell_length_b   5.19100083
_cell_length_c   7.13870594
_cell_angle_alpha   94.61648927
_cell_angle_beta   100.05375387
_cell_angle_gamma   108.54260260
_symmetry_Int_Tables_number   1
_chemical_formula_structural   LiY2Sb2(Te2P)2
_chemical_formula_sum   'Li1 Y2 Sb2 Te4 P2'
_cell_volume   176.89335705
_cell_formula_units_Z   1
loop_
 _symmetry_equiv_pos_site_id
 _symmetry_equiv_pos_as_xyz
  1  'x, y, z'
loop_
 _atom_site_type_symbol
 _atom_site_label
 _atom_site_symmetry_multiplicity
 _atom_site_fract_x
 _atom_site_fract_y
 _atom_site_fract_z
 _atom_site_occupancy
  Te  Te0  1  0.00000000  0.00000000  0.00000000  1
  Te  Te1  1  0.50000000  0.50000000  0.50000000  1
  Te  Te2  1  0.25000000  0.25000000  0.25000000  1
  Te  Te3  1  0.75000000  0.25000000  0.00000000  1
  P  P4  1  0.25000000  0.75000000  0.50000000  1
  P  P5  1  0.25509073  0.35904919  0.68136104  1
  Li  Li6  1  0.15390062  0.94036582  0.73684568  1
  Y  Y7  1  0.26355846  0.42098746  0.90064920  1
  Y  Y8  1  0.57789973  0.71310596  0.04644822  1
  Sb  Sb9  1  0.90432427  0.88678725  0.73992487  1
  Sb  Sb10  1  0.40710768  0.77221467  0.78637343  1
