# generated using pymatgen
data_LiF
_symmetry_space_group_name_H-M   'P 1'
_cell_length_a   7.73181427
_cell_length_b   15.08091008
_cell_length_c   14.24810290
_cell_angle_alpha   90.00000000
_cell_angle_beta   90.00000000
_cell_angle_gamma   90.00000000
_symmetry_Int_Tables_number   1
_chemical_formula_structural   LiF
_chemical_formula_sum   'Li58 F58'
_cell_volume   1661.36863341
_cell_formula_units_Z   58
loop_
 _symmetry_equiv_pos_site_id
 _symmetry_equiv_pos_as_xyz
  1  'x, y, z'
loop_
 _atom_site_type_symbol
 _atom_site_label
 _atom_site_symmetry_multiplicity
 _atom_site_fract_x
 _atom_site_fract_y
 _atom_site_fract_z
 _atom_site_occupancy
  F  F0  1  0.00000000  0.50000000  0.50000000  1
  F  F1  1  0.50000000  0.00000000  0.50000000  1
  F  F2  1  0.19869806  0.15722388  0.11409485  1
  F  F3  1  0.80130194  0.84277612  0.11409485  1
  F  F4  1  0.30130194  0.65722388  0.88590515  1
  F  F5  1  0.69869806  0.34277612  0.88590515  1
  F  F6  1  0.80130194  0.84277612  0.88590515  1
  F  F7  1  0.19869806  0.15722388  0.88590515  1
  F  F8  1  0.69869806  0.34277612  0.11409485  1
  F  F9  1  0.30130194  0.65722388  0.11409485  1
  F  F10  1  0.22743124  0.28414112  0.38600061  1
  F  F11  1  0.77256876  0.71585888  0.38600061  1
  F  F12  1  0.27256876  0.78414112  0.61399939  1
  F  F13  1  0.72743124  0.21585888  0.61399939  1
  F  F14  1  0.77256876  0.71585888  0.61399939  1
  F  F15  1  0.22743124  0.28414112  0.61399939  1
  F  F16  1  0.72743124  0.21585888  0.38600061  1
  F  F17  1  0.27256876  0.78414112  0.38600061  1
  F  F18  1  0.53449665  0.53557333  0.89480306  1
  F  F19  1  0.46550335  0.46442667  0.89480306  1
  F  F20  1  0.96550335  0.03557333  0.10519694  1
  F  F21  1  0.03449665  0.96442667  0.10519694  1
  F  F22  1  0.46550335  0.46442667  0.10519694  1
  F  F23  1  0.53449665  0.53557333  0.10519694  1
  F  F24  1  0.03449665  0.96442667  0.89480306  1
  F  F25  1  0.96550335  0.03557333  0.89480306  1
  F  F26  1  0.25612540  0.89264037  0.52899341  1
  F  F27  1  0.74387460  0.10735963  0.52899341  1
  F  F28  1  0.24387460  0.39264037  0.47100659  1
  F  F29  1  0.75612540  0.60735963  0.47100659  1
  F  F30  1  0.74387460  0.10735963  0.47100659  1
  F  F31  1  0.25612540  0.89264037  0.47100659  1
  F  F32  1  0.75612540  0.60735963  0.52899341  1
  F  F33  1  0.24387460  0.39264037  0.52899341  1
  F  F34  1  0.91620685  0.48556666  0.60795310  1
  F  F35  1  0.08379315  0.51443334  0.60795310  1
  F  F36  1  0.58379315  0.98556666  0.39204690  1
  F  F37  1  0.41620685  0.01443334  0.39204690  1
  F  F38  1  0.08379315  0.51443334  0.39204690  1
  F  F39  1  0.91620685  0.48556666  0.39204690  1
  F  F40  1  0.41620685  0.01443334  0.60795310  1
  F  F41  1  0.58379315  0.98556666  0.60795310  1
  F  F42  1  0.00000000  0.50000000  0.82075596  1
  F  F43  1  0.50000000  0.00000000  0.17924404  1
  F  F44  1  0.00000000  0.50000000  0.17924404  1
  F  F45  1  0.50000000  0.00000000  0.82075596  1
  F  F46  1  0.44840301  0.69148430  0.50000000  1
  F  F47  1  0.55159699  0.30851570  0.50000000  1
  F  F48  1  0.05159699  0.19148430  0.50000000  1
  F  F49  1  0.94840301  0.80851570  0.50000000  1
  F  F50  1  0.45464803  0.83395551  0.90591077  1
  F  F51  1  0.54535197  0.16604449  0.90591077  1
  F  F52  1  0.04535197  0.33395551  0.09408923  1
  F  F53  1  0.95464803  0.66604449  0.09408923  1
  F  F54  1  0.54535197  0.16604449  0.09408923  1
  F  F55  1  0.45464803  0.83395551  0.09408923  1
  F  F56  1  0.95464803  0.66604449  0.90591077  1
  F  F57  1  0.04535197  0.33395551  0.90591077  1
  Li  Li58  1  0.63546331  0.42610262  0.11650127  1
  Li  Li59  1  -0.63546331  -0.42610262  0.11650127  1
  Li  Li60  1  -0.13546331  0.92610262  -0.11650127  1
  Li  Li61  1  1.13546331  0.07389738  -0.11650127  1
  Li  Li62  1  -0.63546331  -0.42610262  -0.11650127  1
  Li  Li63  1  0.63546331  0.42610262  -0.11650127  1
  Li  Li64  1  1.13546331  0.07389738  0.11650127  1
  Li  Li65  1  -0.13546331  0.92610262  0.11650127  1
  Li  Li66  1  0.88911310  0.92867495  0.72155165  1
  Li  Li67  1  0.11088690  0.07132505  0.72155165  1
  Li  Li68  1  0.61088690  0.42867495  0.27844835  1
  Li  Li69  1  0.38911310  0.57132505  0.27844835  1
  Li  Li70  1  0.11088690  0.07132505  0.27844835  1
  Li  Li71  1  0.88911310  0.92867495  0.27844835  1
  Li  Li72  1  0.38911310  0.57132505  0.72155165  1
  Li  Li73  1  0.61088690  0.42867495  0.72155165  1
  Li  Li74  1  0.00000000  0.50000000  0.31339897  1
  Li  Li75  1  0.50000000  0.00000000  0.68660103  1
  Li  Li76  1  0.00000000  0.50000000  0.68660103  1
  Li  Li77  1  0.50000000  0.00000000  0.31339897  1
  Li  Li78  1  0.02557726  0.61430470  0.65801707  1
  Li  Li79  1  0.97442274  0.38569530  0.65801707  1
  Li  Li80  1  0.47442274  0.11430470  0.34198293  1
  Li  Li81  1  0.52557726  0.88569530  0.34198293  1
  Li  Li82  1  0.97442274  0.38569530  0.34198293  1
  Li  Li83  1  0.02557726  0.61430470  0.34198293  1
  Li  Li84  1  0.52557726  0.88569530  0.65801707  1
  Li  Li85  1  0.47442274  0.11430470  0.65801707  1
  Li  Li86  1  0.71192307  0.50020104  0.26499437  1
  Li  Li87  1  0.28807693  0.49979896  0.26499437  1
  Li  Li88  1  0.78807693  0.00020104  0.73500563  1
  Li  Li89  1  0.21192307  0.99979896  0.73500563  1
  Li  Li90  1  0.28807693  0.49979896  0.73500563  1
  Li  Li91  1  0.71192307  0.50020104  0.73500563  1
  Li  Li92  1  0.21192307  0.99979896  0.26499437  1
  Li  Li93  1  0.78807693  0.00020104  0.26499437  1
  Li  Li94  1  0.00000000  0.00000000  0.00000000  1
  Li  Li95  1  0.50000000  0.50000000  0.00000000  1
  Li  Li96  1  0.68716312  0.09206115  0.26138094  1
  Li  Li97  1  0.31283688  0.90793885  0.26138094  1
  Li  Li98  1  0.81283688  0.59206115  0.73861906  1
  Li  Li99  1  0.18716312  0.40793885  0.73861906  1
  Li  Li100  1  0.31283688  0.90793885  0.73861906  1
  Li  Li101  1  0.68716312  0.09206115  0.73861906  1
  Li  Li102  1  0.18716312  0.40793885  0.26138094  1
  Li  Li103  1  0.81283688  0.59206115  0.26138094  1
  Li  Li104  1  0.77458112  0.41504244  0.50000000  1
  Li  Li105  1  0.22541888  0.58495756  0.50000000  1
  Li  Li106  1  0.72541888  0.91504244  0.50000000  1
  Li  Li107  1  0.27458112  0.08495756  0.50000000  1
  Li  Li108  1  0.02112828  0.76352732  0.62963973  1
  Li  Li109  1  0.97887172  0.23647268  0.62963973  1
  Li  Li110  1  0.47887172  0.26352732  0.37036027  1
  Li  Li111  1  0.52112828  0.73647268  0.37036027  1
  Li  Li112  1  0.97887172  0.23647268  0.37036027  1
  Li  Li113  1  0.02112828  0.76352732  0.37036027  1
  Li  Li114  1  0.52112828  0.73647268  0.62963973  1
  Li  Li115  1  0.47887172  0.26352732  0.62963973  1
