# generated using pymatgen
data_Li2Y2MoP3Se2
_symmetry_space_group_name_H-M   'P 1'
_cell_length_a   4.81392765
_cell_length_b   5.04357381
_cell_length_c   7.01567425
_cell_angle_alpha   95.07299612
_cell_angle_beta   101.04793089
_cell_angle_gamma   110.37620919
_symmetry_Int_Tables_number   1
_chemical_formula_structural   Li2Y2MoP3Se2
_chemical_formula_sum   'Li2 Y2 Mo1 P3 Se2'
_cell_volume   154.47430788
_cell_formula_units_Z   1
loop_
 _symmetry_equiv_pos_site_id
 _symmetry_equiv_pos_as_xyz
  1  'x, y, z'
loop_
 _atom_site_type_symbol
 _atom_site_label
 _atom_site_symmetry_multiplicity
 _atom_site_fract_x
 _atom_site_fract_y
 _atom_site_fract_z
 _atom_site_occupancy
  Se  Se0  1  0.12500000  0.00000000  0.25000000  1
  Se  Se1  1  0.00000000  0.00000000  0.00000000  1
  Y  Y2  1  0.37500000  0.00000000  0.25000000  1
  Y  Y3  1  0.25000000  0.25000000  0.25000000  1
  P  P4  1  0.00000000  0.25000000  0.12500000  1
  P  P5  1  0.24477803  0.14082413  0.31304389  1
  P  P6  1  0.98435444  0.65317953  0.90908266  1
  Mo  Mo7  1  0.79341063  0.23312016  0.26129383  1
  Li  Li8  1  0.59273472  0.88244196  0.47252963  1
  Li  Li9  1  0.94765613  0.84471721  0.01632780  1
