# generated using pymatgen
data_Li4TeF2
_symmetry_space_group_name_H-M   'P 1'
_cell_length_a   11.08964900
_cell_length_b   11.08964900
_cell_length_c   33.54646667
_cell_angle_alpha   90.00000000
_cell_angle_beta   90.00000000
_cell_angle_gamma   120.00000000
_symmetry_Int_Tables_number   1
_chemical_formula_structural   Li4TeF2
_chemical_formula_sum   'Li96 Te24 F48'
_cell_volume   3572.83546382
_cell_formula_units_Z   24
loop_
 _symmetry_equiv_pos_site_id
 _symmetry_equiv_pos_as_xyz
  1  'x, y, z'
loop_
 _atom_site_type_symbol
 _atom_site_label
 _atom_site_symmetry_multiplicity
 _atom_site_fract_x
 _atom_site_fract_y
 _atom_site_fract_z
 _atom_site_occupancy
  F  F0  1  0.11254610  0.46921722  0.00000000  1
  F  F1  1  0.53078278  0.64332888  -0.00000000  1
  F  F2  1  0.35667112  0.88745390  0.00000000  1
  F  F3  1  0.46921722  0.11254610  -0.00000000  1
  F  F4  1  0.64332888  0.53078278  0.00000000  1
  F  F5  1  0.88745390  0.35667112  0.00000000  1
  F  F6  1  0.56093914  0.00000000  0.97247162  1
  F  F7  1  0.00000000  0.56093914  0.97247162  1
  F  F8  1  0.43906086  0.43906086  0.97247162  1
  F  F9  1  0.56093914  0.00000000  0.02752838  1
  F  F10  1  0.00000000  0.56093914  0.02752838  1
  F  F11  1  0.43906086  0.43906086  0.02752838  1
  F  F12  1  0.95392438  0.85239777  0.01043016  1
  F  F13  1  -0.85239777  0.10152661  0.01043016  1
  F  F14  1  -0.10152661  -0.95392438  0.01043016  1
  F  F15  1  0.95392438  0.85239777  -0.01043016  1
  F  F16  1  -0.85239777  0.10152661  -0.01043016  1
  F  F17  1  -0.10152661  -0.95392438  -0.01043016  1
  F  F18  1  0.85239777  0.95392438  -0.01043016  1
  F  F19  1  0.10152661  -0.85239777  -0.01043016  1
  F  F20  1  -0.95392438  -0.10152661  -0.01043016  1
  F  F21  1  0.85239777  0.95392438  0.01043016  1
  F  F22  1  0.10152661  -0.85239777  0.01043016  1
  F  F23  1  -0.95392438  -0.10152661  0.01043016  1
  F  F24  1  0.52073482  0.15233790  0.74638700  1
  F  F25  1  0.84766210  0.36839691  0.74638700  1
  F  F26  1  0.63160309  0.47926518  0.74638700  1
  F  F27  1  0.52073482  0.15233790  0.25361300  1
  F  F28  1  0.84766210  0.36839691  0.25361300  1
  F  F29  1  0.63160309  0.47926518  0.25361300  1
  F  F30  1  0.15233790  0.52073482  0.25361300  1
  F  F31  1  0.36839691  0.84766210  0.25361300  1
  F  F32  1  0.47926518  0.63160309  0.25361300  1
  F  F33  1  0.15233790  0.52073482  0.74638700  1
  F  F34  1  0.36839691  0.84766210  0.74638700  1
  F  F35  1  0.47926518  0.63160309  0.74638700  1
  F  F36  1  0.33333333  0.66666667  -0.00000000  1
  F  F37  1  0.66666667  0.33333333  -0.00000000  1
  F  F38  1  0.17450137  -0.00000000  0.00000000  1
  F  F39  1  0.00000000  0.17450137  0.00000000  1
  F  F40  1  0.82549863  0.82549863  0.00000000  1
  F  F41  1  0.67937484  0.44224309  0.00000000  1
  F  F42  1  0.55775691  0.23713174  0.00000000  1
  F  F43  1  0.76286826  0.32062516  0.00000000  1
  F  F44  1  0.44224309  0.67937484  0.00000000  1
  F  F45  1  0.23713174  0.55775691  0.00000000  1
  F  F46  1  0.32062516  0.76286826  0.00000000  1
  F  F47  1  0.00000000  0.00000000  0.50000000  1
  Li  Li48  1  0.54463804  0.46203646  0.78650456  1
  Li  Li49  1  0.53796354  0.08260158  0.78650456  1
  Li  Li50  1  0.91739842  0.45536196  0.78650456  1
  Li  Li51  1  0.54463804  0.46203646  0.21349544  1
  Li  Li52  1  0.53796354  0.08260158  0.21349544  1
  Li  Li53  1  0.91739842  0.45536196  0.21349544  1
  Li  Li54  1  0.46203646  0.54463804  0.21349544  1
  Li  Li55  1  0.08260158  0.53796354  0.21349544  1
  Li  Li56  1  0.45536196  0.91739842  0.21349544  1
  Li  Li57  1  0.46203646  0.54463804  0.78650456  1
  Li  Li58  1  0.08260158  0.53796354  0.78650456  1
  Li  Li59  1  0.45536196  0.91739842  0.78650456  1
  Li  Li60  1  0.36066376  0.52497890  0.50000000  1
  Li  Li61  1  0.47502110  0.83568486  0.50000000  1
  Li  Li62  1  0.16431514  0.63933624  0.50000000  1
  Li  Li63  1  0.52497890  0.36066376  0.50000000  1
  Li  Li64  1  0.83568486  0.47502110  0.50000000  1
  Li  Li65  1  0.63933624  0.16431514  0.50000000  1
  Li  Li66  1  0.13159692  0.54723183  0.10226944  1
  Li  Li67  1  0.45276817  0.58436510  0.10226944  1
  Li  Li68  1  0.41563490  0.86840308  0.10226944  1
  Li  Li69  1  0.13159692  0.54723183  0.89773056  1
  Li  Li70  1  0.45276817  0.58436510  0.89773056  1
  Li  Li71  1  0.41563490  0.86840308  0.89773056  1
  Li  Li72  1  0.54723183  0.13159692  0.89773056  1
  Li  Li73  1  0.58436510  0.45276817  0.89773056  1
  Li  Li74  1  0.86840308  0.41563490  0.89773056  1
  Li  Li75  1  0.54723183  0.13159692  0.10226944  1
  Li  Li76  1  0.58436510  0.45276817  0.10226944  1
  Li  Li77  1  0.86840308  0.41563490  0.10226944  1
  Li  Li78  1  0.70584883  0.00000000  0.55907114  1
  Li  Li79  1  0.00000000  0.70584883  0.55907114  1
  Li  Li80  1  0.29415117  0.29415117  0.55907114  1
  Li  Li81  1  0.70584883  0.00000000  0.44092886  1
  Li  Li82  1  0.00000000  0.70584883  0.44092886  1
  Li  Li83  1  0.29415117  0.29415117  0.44092886  1
  Li  Li84  1  0.08002946  0.59417468  0.17004397  1
  Li  Li85  1  0.40582532  0.48585478  0.17004397  1
  Li  Li86  1  0.51414522  0.91997054  0.17004397  1
  Li  Li87  1  0.08002946  0.59417468  0.82995603  1
  Li  Li88  1  0.40582532  0.48585478  0.82995603  1
  Li  Li89  1  0.51414522  0.91997054  0.82995603  1
  Li  Li90  1  0.59417468  0.08002946  0.82995603  1
  Li  Li91  1  0.48585478  0.40582532  0.82995603  1
  Li  Li92  1  0.91997054  0.51414522  0.82995603  1
  Li  Li93  1  0.59417468  0.08002946  0.17004397  1
  Li  Li94  1  0.48585478  0.40582532  0.17004397  1
  Li  Li95  1  0.91997054  0.51414522  0.17004397  1
  Li  Li96  1  0.33209839  0.00000000  0.89161334  1
  Li  Li97  1  0.00000000  0.33209839  0.89161334  1
  Li  Li98  1  0.66790161  0.66790161  0.89161334  1
  Li  Li99  1  0.33209839  0.00000000  0.10838666  1
  Li  Li100  1  0.00000000  0.33209839  0.10838666  1
  Li  Li101  1  0.66790161  0.66790161  0.10838666  1
  Li  Li102  1  0.16070529  0.60548445  0.54514445  1
  Li  Li103  1  0.39451555  0.55522084  0.54514445  1
  Li  Li104  1  0.44477916  0.83929471  0.54514445  1
  Li  Li105  1  0.16070529  0.60548445  0.45485555  1
  Li  Li106  1  0.39451555  0.55522084  0.45485555  1
  Li  Li107  1  0.44477916  0.83929471  0.45485555  1
  Li  Li108  1  0.60548445  0.16070529  0.45485555  1
  Li  Li109  1  0.55522084  0.39451555  0.45485555  1
  Li  Li110  1  0.83929471  0.44477916  0.45485555  1
  Li  Li111  1  0.60548445  0.16070529  0.54514445  1
  Li  Li112  1  0.55522084  0.39451555  0.54514445  1
  Li  Li113  1  0.83929471  0.44477916  0.54514445  1
  Li  Li114  1  0.90085668  0.54550968  0.00000000  1
  Li  Li115  1  0.45449032  0.35534700  0.00000000  1
  Li  Li116  1  0.64465300  0.09914332  0.00000000  1
  Li  Li117  1  0.54550968  0.90085668  0.00000000  1
  Li  Li118  1  0.35534700  0.45449032  0.00000000  1
  Li  Li119  1  0.09914332  0.64465300  0.00000000  1
  Li  Li120  1  0.81277479  0.40416799  0.13930755  1
  Li  Li121  1  0.59583201  0.40860680  0.13930755  1
  Li  Li122  1  0.59139320  0.18722521  0.13930755  1
  Li  Li123  1  0.81277479  0.40416799  0.86069245  1
  Li  Li124  1  0.59583201  0.40860680  0.86069245  1
  Li  Li125  1  0.59139320  0.18722521  0.86069245  1
  Li  Li126  1  0.40416799  0.81277479  0.86069245  1
  Li  Li127  1  0.40860680  0.59583201  0.86069245  1
  Li  Li128  1  0.18722521  0.59139320  0.86069245  1
  Li  Li129  1  0.40416799  0.81277479  0.13930755  1
  Li  Li130  1  0.40860680  0.59583201  0.13930755  1
  Li  Li131  1  0.18722521  0.59139320  0.13930755  1
  Li  Li132  1  0.19529270  0.42396054  0.33814153  1
  Li  Li133  1  0.57603946  0.77133216  0.33814153  1
  Li  Li134  1  0.22866784  0.80470730  0.33814153  1
  Li  Li135  1  0.19529270  0.42396054  0.66185847  1
  Li  Li136  1  0.57603946  0.77133216  0.66185847  1
  Li  Li137  1  0.22866784  0.80470730  0.66185847  1
  Li  Li138  1  0.42396054  0.19529270  0.66185847  1
  Li  Li139  1  0.77133216  0.57603946  0.66185847  1
  Li  Li140  1  0.80470730  0.22866784  0.66185847  1
  Li  Li141  1  0.42396054  0.19529270  0.33814153  1
  Li  Li142  1  0.77133216  0.57603946  0.33814153  1
  Li  Li143  1  0.80470730  0.22866784  0.33814153  1
  Te  Te144  1  0.28286905  0.00000000  0.70445149  1
  Te  Te145  1  0.00000000  0.28286905  0.70445149  1
  Te  Te146  1  0.71713095  0.71713095  0.70445149  1
  Te  Te147  1  0.28286905  0.00000000  0.29554851  1
  Te  Te148  1  0.00000000  0.28286905  0.29554851  1
  Te  Te149  1  0.71713095  0.71713095  0.29554851  1
  Te  Te150  1  0.39321986  0.00000000  0.83506938  1
  Te  Te151  1  0.00000000  0.39321986  0.83506938  1
  Te  Te152  1  0.60678014  0.60678014  0.83506938  1
  Te  Te153  1  0.39321986  0.00000000  0.16493062  1
  Te  Te154  1  0.00000000  0.39321986  0.16493062  1
  Te  Te155  1  0.60678014  0.60678014  0.16493062  1
  Te  Te156  1  0.07862185  0.00000000  0.17416731  1
  Te  Te157  1  0.00000000  0.07862185  0.17416731  1
  Te  Te158  1  0.92137815  0.92137815  0.17416731  1
  Te  Te159  1  0.07862185  0.00000000  0.82583269  1
  Te  Te160  1  0.00000000  0.07862185  0.82583269  1
  Te  Te161  1  0.92137815  0.92137815  0.82583269  1
  Te  Te162  1  0.20638002  0.82145788  -0.00000000  1
  Te  Te163  1  0.17854212  0.38492214  0.00000000  1
  Te  Te164  1  0.61507786  0.79361998  0.00000000  1
  Te  Te165  1  0.82145788  0.20638002  -0.00000000  1
  Te  Te166  1  0.38492214  0.17854212  0.00000000  1
  Te  Te167  1  0.79361998  0.61507786  0.00000000  1
