# generated using pymatgen
data_Li2YP4F2
_symmetry_space_group_name_H-M   'P 1'
_cell_length_a   6.17661688
_cell_length_b   6.01289692
_cell_length_c   8.08256820
_cell_angle_alpha   95.07397684
_cell_angle_beta   101.05006669
_cell_angle_gamma   110.38014834
_symmetry_Int_Tables_number   1
_chemical_formula_structural   Li2YP4F2
_chemical_formula_sum   'Li2 Y1 P4 F2'
_cell_volume   272.21658416
_cell_formula_units_Z   1
loop_
 _symmetry_equiv_pos_site_id
 _symmetry_equiv_pos_as_xyz
  1  'x, y, z'
loop_
 _atom_site_type_symbol
 _atom_site_label
 _atom_site_symmetry_multiplicity
 _atom_site_fract_x
 _atom_site_fract_y
 _atom_site_fract_z
 _atom_site_occupancy
  F  F0  1  0.00000000  0.00000000  0.00000000  1
  F  F1  1  0.50000000  0.50000000  0.50000000  1
  P  P2  1  0.50000000  0.50000000  0.00000000  1
  P  P3  1  0.50000000  0.00000000  0.50000000  1
  P  P4  1  0.00000000  0.50000000  0.50000000  1
  P  P5  1  0.99901922  0.29362265  0.42058016  1
  Li  Li6  1  0.78994946  0.14617391  0.02999464  1
  Li  Li7  1  0.84752492  0.68636174  0.65807945  1
  Y  Y8  1  0.04019315  0.01266783  0.33317223  1
