# generated using pymatgen
data_Li4TeF2
_symmetry_space_group_name_H-M   'P 1'
_cell_length_a   11.55143243
_cell_length_b   11.55143243
_cell_length_c   19.22419104
_cell_angle_alpha   90.00000000
_cell_angle_beta   90.00000000
_cell_angle_gamma   120.00000000
_symmetry_Int_Tables_number   1
_chemical_formula_structural   Li4TeF2
_chemical_formula_sum   'Li96 Te24 F48'
_cell_volume   2221.52082945
_cell_formula_units_Z   24
loop_
 _symmetry_equiv_pos_site_id
 _symmetry_equiv_pos_as_xyz
  1  'x, y, z'
loop_
 _atom_site_type_symbol
 _atom_site_label
 _atom_site_symmetry_multiplicity
 _atom_site_fract_x
 _atom_site_fract_y
 _atom_site_fract_z
 _atom_site_occupancy
  F  F0  1  0.49858087  0.59469169  0.56494033  1
  F  F1  1  -0.59469169  -0.09611082  0.56494033  1
  F  F2  1  0.09611082  -0.49858087  0.56494033  1
  F  F3  1  -0.49858087  -0.59469169  1.06494033  1
  F  F4  1  0.59469169  0.09611082  1.06494033  1
  F  F5  1  -0.09611082  0.49858087  1.06494033  1
  F  F6  1  -0.49858087  -0.59469169  -0.56494033  1
  F  F7  1  0.59469169  0.09611082  -0.56494033  1
  F  F8  1  -0.09611082  0.49858087  -0.56494033  1
  F  F9  1  0.49858087  0.59469169  -0.06494033  1
  F  F10  1  -0.59469169  -0.09611082  -0.06494033  1
  F  F11  1  0.09611082  -0.49858087  -0.06494033  1
  F  F12  1  0.19127503  0.05833167  0.29518354  1
  F  F13  1  0.94166833  0.13294335  0.29518354  1
  F  F14  1  0.86705665  0.80872497  0.29518354  1
  F  F15  1  0.80872497  0.94166833  0.79518354  1
  F  F16  1  0.05833167  0.86705665  0.79518354  1
  F  F17  1  0.13294335  0.19127503  0.79518354  1
  F  F18  1  0.80872497  0.94166833  0.70481646  1
  F  F19  1  0.05833167  0.86705665  0.70481646  1
  F  F20  1  0.13294335  0.19127503  0.70481646  1
  F  F21  1  0.19127503  0.05833167  0.20481646  1
  F  F22  1  0.94166833  0.13294335  0.20481646  1
  F  F23  1  0.86705665  0.80872497  0.20481646  1
  F  F24  1  0.14707673  0.89982090  0.25000000  1
  F  F25  1  0.10017910  0.24725583  0.25000000  1
  F  F26  1  0.75274417  0.85292327  0.25000000  1
  F  F27  1  0.85292327  0.10017910  0.75000000  1
  F  F28  1  0.89982090  0.75274417  0.75000000  1
  F  F29  1  0.24725583  0.14707673  0.75000000  1
  F  F30  1  0.50000000  0.00000000  -0.00000000  1
  F  F31  1  0.00000000  0.50000000  0.00000000  1
  F  F32  1  0.50000000  0.50000000  0.00000000  1
  F  F33  1  0.50000000  0.00000000  0.50000000  1
  F  F34  1  0.00000000  0.50000000  0.50000000  1
  F  F35  1  0.50000000  0.50000000  0.50000000  1
  F  F36  1  0.00000000  0.00000000  0.35991107  1
  F  F37  1  0.00000000  0.00000000  0.85991107  1
  F  F38  1  0.00000000  0.00000000  0.64008893  1
  F  F39  1  0.00000000  0.00000000  0.14008893  1
  F  F40  1  0.19341339  0.21250684  0.25000000  1
  F  F41  1  0.78749316  0.98090655  0.25000000  1
  F  F42  1  0.01909345  0.80658661  0.25000000  1
  F  F43  1  0.80658661  0.78749316  0.75000000  1
  F  F44  1  0.21250684  0.01909345  0.75000000  1
  F  F45  1  0.98090655  0.19341339  0.75000000  1
  F  F46  1  0.00000000  0.00000000  0.25000000  1
  F  F47  1  0.00000000  0.00000000  0.75000000  1
  Li  Li48  1  0.21262601  0.18508670  0.58233851  1
  Li  Li49  1  0.81491330  0.02753931  0.58233851  1
  Li  Li50  1  0.97246069  0.78737399  0.58233851  1
  Li  Li51  1  0.78737399  0.81491330  0.08233851  1
  Li  Li52  1  0.18508670  0.97246069  0.08233851  1
  Li  Li53  1  0.02753931  0.21262601  0.08233851  1
  Li  Li54  1  0.78737399  0.81491330  0.41766149  1
  Li  Li55  1  0.18508670  0.97246069  0.41766149  1
  Li  Li56  1  0.02753931  0.21262601  0.41766149  1
  Li  Li57  1  0.21262601  0.18508670  0.91766149  1
  Li  Li58  1  0.81491330  0.02753931  0.91766149  1
  Li  Li59  1  0.97246069  0.78737399  0.91766149  1
  Li  Li60  1  0.00000000  0.00000000  0.00000000  1
  Li  Li61  1  0.00000000  0.00000000  0.50000000  1
  Li  Li62  1  0.33333333  0.66666667  0.90746671  1
  Li  Li63  1  0.66666667  0.33333333  0.40746671  1
  Li  Li64  1  0.66666667  0.33333333  0.09253329  1
  Li  Li65  1  0.33333333  0.66666667  0.59253329  1
  Li  Li66  1  0.58942067  0.72895662  0.04454489  1
  Li  Li67  1  0.27104338  0.86046405  0.04454489  1
  Li  Li68  1  0.13953595  0.41057933  0.04454489  1
  Li  Li69  1  0.41057933  0.27104338  0.54454489  1
  Li  Li70  1  0.72895662  0.13953595  0.54454489  1
  Li  Li71  1  0.86046405  0.58942067  0.54454489  1
  Li  Li72  1  0.41057933  0.27104338  0.95545511  1
  Li  Li73  1  0.72895662  0.13953595  0.95545511  1
  Li  Li74  1  0.86046405  0.58942067  0.95545511  1
  Li  Li75  1  0.58942067  0.72895662  0.45545511  1
  Li  Li76  1  0.27104338  0.86046405  0.45545511  1
  Li  Li77  1  0.13953595  0.41057933  0.45545511  1
  Li  Li78  1  0.18094467  0.68694934  0.16534190  1
  Li  Li79  1  0.31305066  0.49399533  0.16534190  1
  Li  Li80  1  0.50600467  0.81905533  0.16534190  1
  Li  Li81  1  0.81905533  0.31305066  0.66534190  1
  Li  Li82  1  0.68694934  0.50600467  0.66534190  1
  Li  Li83  1  0.49399533  0.18094467  0.66534190  1
  Li  Li84  1  0.81905533  0.31305066  0.83465810  1
  Li  Li85  1  0.68694934  0.50600467  0.83465810  1
  Li  Li86  1  0.49399533  0.18094467  0.83465810  1
  Li  Li87  1  0.18094467  0.68694934  0.33465810  1
  Li  Li88  1  0.31305066  0.49399533  0.33465810  1
  Li  Li89  1  0.50600467  0.81905533  0.33465810  1
  Li  Li90  1  0.71715011  0.43038414  0.31653260  1
  Li  Li91  1  0.56961586  0.28676597  0.31653260  1
  Li  Li92  1  0.71323403  0.28284989  0.31653260  1
  Li  Li93  1  0.28284989  0.56961586  0.81653260  1
  Li  Li94  1  0.43038414  0.71323403  0.81653260  1
  Li  Li95  1  0.28676597  0.71715011  0.81653260  1
  Li  Li96  1  0.28284989  0.56961586  0.68346740  1
  Li  Li97  1  0.43038414  0.71323403  0.68346740  1
  Li  Li98  1  0.28676597  0.71715011  0.68346740  1
  Li  Li99  1  0.71715011  0.43038414  0.18346740  1
  Li  Li100  1  0.56961586  0.28676597  0.18346740  1
  Li  Li101  1  0.71323403  0.28284989  0.18346740  1
  Li  Li102  1  0.33022831  0.56600188  0.97475108  1
  Li  Li103  1  0.43399812  0.76422643  0.97475108  1
  Li  Li104  1  0.23577357  0.66977169  0.97475108  1
  Li  Li105  1  0.66977169  0.43399812  0.47475108  1
  Li  Li106  1  0.56600188  0.23577357  0.47475108  1
  Li  Li107  1  0.76422643  0.33022831  0.47475108  1
  Li  Li108  1  0.66977169  0.43399812  0.02524892  1
  Li  Li109  1  0.56600188  0.23577357  0.02524892  1
  Li  Li110  1  0.76422643  0.33022831  0.02524892  1
  Li  Li111  1  0.33022831  0.56600188  0.52524892  1
  Li  Li112  1  0.43399812  0.76422643  0.52524892  1
  Li  Li113  1  0.23577357  0.66977169  0.52524892  1
  Li  Li114  1  0.39390387  0.28039842  0.25000000  1
  Li  Li115  1  0.71960158  0.11350545  0.25000000  1
  Li  Li116  1  0.88649455  0.60609613  0.25000000  1
  Li  Li117  1  0.60609613  0.71960158  0.75000000  1
  Li  Li118  1  0.28039842  0.88649455  0.75000000  1
  Li  Li119  1  0.11350545  0.39390387  0.75000000  1
  Li  Li120  1  0.21036164  0.69410589  0.89070726  1
  Li  Li121  1  0.30589411  0.51625574  0.89070726  1
  Li  Li122  1  0.48374426  0.78963836  0.89070726  1
  Li  Li123  1  0.78963836  0.30589411  0.39070726  1
  Li  Li124  1  0.69410589  0.48374426  0.39070726  1
  Li  Li125  1  0.51625574  0.21036164  0.39070726  1
  Li  Li126  1  0.78963836  0.30589411  0.10929274  1
  Li  Li127  1  0.69410589  0.48374426  0.10929274  1
  Li  Li128  1  0.51625574  0.21036164  0.10929274  1
  Li  Li129  1  0.21036164  0.69410589  0.60929274  1
  Li  Li130  1  0.30589411  0.51625574  0.60929274  1
  Li  Li131  1  0.48374426  0.78963836  0.60929274  1
  Li  Li132  1  0.23564495  0.29398122  0.32500237  1
  Li  Li133  1  0.70601878  0.94166374  0.32500237  1
  Li  Li134  1  0.05833626  0.76435505  0.32500237  1
  Li  Li135  1  0.76435505  0.70601878  0.82500237  1
  Li  Li136  1  0.29398122  0.05833626  0.82500237  1
  Li  Li137  1  0.94166374  0.23564495  0.82500237  1
  Li  Li138  1  0.76435505  0.70601878  0.67499763  1
  Li  Li139  1  0.29398122  0.05833626  0.67499763  1
  Li  Li140  1  0.94166374  0.23564495  0.67499763  1
  Li  Li141  1  0.23564495  0.29398122  0.17499763  1
  Li  Li142  1  0.70601878  0.94166374  0.17499763  1
  Li  Li143  1  0.05833626  0.76435505  0.17499763  1
  Te  Te144  1  0.33333333  0.66666667  0.29230531  1
  Te  Te145  1  0.66666667  0.33333333  0.79230531  1
  Te  Te146  1  0.66666667  0.33333333  0.70769469  1
  Te  Te147  1  0.33333333  0.66666667  0.20769469  1
  Te  Te148  1  0.76951240  0.82911102  0.33674244  1
  Te  Te149  1  0.17088898  0.94040138  0.33674244  1
  Te  Te150  1  0.05959862  0.23048760  0.33674244  1
  Te  Te151  1  0.23048760  0.17088898  0.83674244  1
  Te  Te152  1  0.82911102  0.05959862  0.83674244  1
  Te  Te153  1  0.94040138  0.76951240  0.83674244  1
  Te  Te154  1  0.23048760  0.17088898  0.66325756  1
  Te  Te155  1  0.82911102  0.05959862  0.66325756  1
  Te  Te156  1  0.94040138  0.76951240  0.66325756  1
  Te  Te157  1  0.76951240  0.82911102  0.16325756  1
  Te  Te158  1  0.17088898  0.94040138  0.16325756  1
  Te  Te159  1  0.05959862  0.23048760  0.16325756  1
  Te  Te160  1  0.66666667  0.33333333  0.25000000  1
  Te  Te161  1  0.33333333  0.66666667  0.75000000  1
  Te  Te162  1  0.41494205  0.97065153  0.25000000  1
  Te  Te163  1  0.02934847  0.44429052  0.25000000  1
  Te  Te164  1  0.55570948  0.58505795  0.25000000  1
  Te  Te165  1  0.58505795  0.02934847  0.75000000  1
  Te  Te166  1  0.97065153  0.55570948  0.75000000  1
  Te  Te167  1  0.44429052  0.41494205  0.75000000  1
