# generated using pymatgen
data_Li8CaSeF8
_symmetry_space_group_name_H-M   'P 1'
_cell_length_a   9.33461785
_cell_length_b   9.33461785
_cell_length_c   12.85847658
_cell_angle_alpha   90.00000000
_cell_angle_beta   90.00000000
_cell_angle_gamma   90.00000000
_symmetry_Int_Tables_number   1
_chemical_formula_structural   Li8CaSeF8
_chemical_formula_sum   'Li32 Ca4 Se4 F32'
_cell_volume   1120.42451966
_cell_formula_units_Z   4
loop_
 _symmetry_equiv_pos_site_id
 _symmetry_equiv_pos_as_xyz
  1  'x, y, z'
loop_
 _atom_site_type_symbol
 _atom_site_label
 _atom_site_symmetry_multiplicity
 _atom_site_fract_x
 _atom_site_fract_y
 _atom_site_fract_z
 _atom_site_occupancy
  Ca  Ca0  1  0.00000000  0.75000000  0.12500000  1
  Ca  Ca1  1  0.50000000  0.75000000  0.37500000  1
  Ca  Ca2  1  0.50000000  0.25000000  0.62500000  1
  Ca  Ca3  1  0.00000000  0.25000000  0.87500000  1
  F  F4  1  0.46229874  0.45791954  0.42872735  1
  F  F5  1  0.03770126  -0.45791954  0.92872735  1
  F  F6  1  -0.20791954  1.21229874  0.67872735  1
  F  F7  1  0.70791954  -0.21229874  1.17872735  1
  F  F8  1  0.03770126  0.45791954  0.07127265  1
  F  F9  1  0.46229874  -0.45791954  -0.42872735  1
  F  F10  1  0.70791954  1.21229874  -0.17872735  1
  F  F11  1  -0.20791954  -0.21229874  0.32127265  1
  F  F12  1  -0.46229874  -0.45791954  -0.42872735  1
  F  F13  1  0.96229874  0.45791954  0.07127265  1
  F  F14  1  1.20791954  -0.21229874  0.32127265  1
  F  F15  1  0.29208046  1.21229874  -0.17872735  1
  F  F16  1  0.96229874  -0.45791954  0.92872735  1
  F  F17  1  -0.46229874  0.45791954  0.42872735  1
  F  F18  1  0.29208046  -0.21229874  1.17872735  1
  F  F19  1  1.20791954  1.21229874  0.67872735  1
  F  F20  1  0.96229874  0.95791954  0.92872735  1
  F  F21  1  0.53770126  0.04208046  1.42872735  1
  F  F22  1  0.29208046  1.71229874  1.17872735  1
  F  F23  1  1.20791954  0.28770126  1.67872735  1
  F  F24  1  0.53770126  0.95791954  0.57127265  1
  F  F25  1  0.96229874  0.04208046  0.07127265  1
  F  F26  1  1.20791954  1.71229874  0.32127265  1
  F  F27  1  0.29208046  0.28770126  0.82127265  1
  F  F28  1  0.03770126  0.04208046  0.07127265  1
  F  F29  1  1.46229874  0.95791954  0.57127265  1
  F  F30  1  1.70791954  0.28770126  0.82127265  1
  F  F31  1  0.79208046  1.71229874  0.32127265  1
  F  F32  1  1.46229874  0.04208046  1.42872735  1
  F  F33  1  0.03770126  0.95791954  0.92872735  1
  F  F34  1  0.79208046  0.28770126  1.67872735  1
  F  F35  1  1.70791954  1.71229874  1.17872735  1
  Li  Li36  1  0.00000000  0.00000000  0.00000000  1
  Li  Li37  1  0.50000000  0.00000000  0.50000000  1
  Li  Li38  1  0.25000000  0.75000000  0.25000000  1
  Li  Li39  1  0.25000000  0.25000000  0.75000000  1
  Li  Li40  1  0.50000000  0.50000000  0.50000000  1
  Li  Li41  1  0.00000000  0.50000000  0.00000000  1
  Li  Li42  1  0.75000000  0.25000000  0.75000000  1
  Li  Li43  1  0.75000000  0.75000000  0.25000000  1
  Li  Li44  1  0.18531257  0.00000000  0.00000000  1
  Li  Li45  1  0.31468743  0.00000000  0.50000000  1
  Li  Li46  1  0.25000000  0.93531257  0.25000000  1
  Li  Li47  1  0.25000000  0.06468743  0.75000000  1
  Li  Li48  1  0.81468743  0.00000000  -0.00000000  1
  Li  Li49  1  0.68531257  0.00000000  0.50000000  1
  Li  Li50  1  0.75000000  0.06468743  0.75000000  1
  Li  Li51  1  0.75000000  0.93531257  0.25000000  1
  Li  Li52  1  0.68531257  0.50000000  0.50000000  1
  Li  Li53  1  0.81468743  0.50000000  0.00000000  1
  Li  Li54  1  0.75000000  0.43531257  0.75000000  1
  Li  Li55  1  0.75000000  0.56468743  0.25000000  1
  Li  Li56  1  0.31468743  0.50000000  0.50000000  1
  Li  Li57  1  0.18531257  0.50000000  0.00000000  1
  Li  Li58  1  0.25000000  0.56468743  0.25000000  1
  Li  Li59  1  0.25000000  0.43531257  0.75000000  1
  Li  Li60  1  0.00000000  0.25000000  0.60312643  1
  Li  Li61  1  0.00000000  0.75000000  0.85312643  1
  Li  Li62  1  0.50000000  0.25000000  0.89687357  1
  Li  Li63  1  0.50000000  0.75000000  0.64687357  1
  Li  Li64  1  0.50000000  0.75000000  0.10312643  1
  Li  Li65  1  0.50000000  0.25000000  0.35312643  1
  Li  Li66  1  0.00000000  0.75000000  0.39687357  1
  Li  Li67  1  0.00000000  0.25000000  0.14687357  1
  Se  Se68  1  0.00000000  0.25000000  0.37500000  1
  Se  Se69  1  0.00000000  0.75000000  0.62500000  1
  Se  Se70  1  0.50000000  0.75000000  0.87500000  1
  Se  Se71  1  0.50000000  0.25000000  0.12500000  1
