# generated using pymatgen
data_LiF
_symmetry_space_group_name_H-M   'P 1'
_cell_length_a   5.56417254
_cell_length_b   5.56417254
_cell_length_c   15.71693407
_cell_angle_alpha   90.00000000
_cell_angle_beta   90.00000000
_cell_angle_gamma   120.00000000
_symmetry_Int_Tables_number   1
_chemical_formula_structural   LiF
_chemical_formula_sum   'Li16 F16'
_cell_volume   421.40495780
_cell_formula_units_Z   16
loop_
 _symmetry_equiv_pos_site_id
 _symmetry_equiv_pos_as_xyz
  1  'x, y, z'
loop_
 _atom_site_type_symbol
 _atom_site_label
 _atom_site_symmetry_multiplicity
 _atom_site_fract_x
 _atom_site_fract_y
 _atom_site_fract_z
 _atom_site_occupancy
  F  F0  1  0.36534737  0.00000000  0.50000000  1
  F  F1  1  0.00000000  0.36534737  0.50000000  1
  F  F2  1  0.63465263  0.63465263  0.50000000  1
  F  F3  1  0.33333333  0.66666667  0.50000000  1
  F  F4  1  0.66666667  0.33333333  0.50000000  1
  F  F5  1  0.54629432  0.91175545  0.00000000  1
  F  F6  1  0.08824455  0.63453887  0.00000000  1
  F  F7  1  0.36546113  0.45370568  0.00000000  1
  F  F8  1  0.91175545  0.54629432  0.00000000  1
  F  F9  1  0.63453887  0.08824455  0.00000000  1
  F  F10  1  0.45370568  0.36546113  0.00000000  1
  F  F11  1  0.00000000  0.00000000  0.83883116  1
  F  F12  1  0.00000000  0.00000000  0.16116884  1
  F  F13  1  0.00000000  0.00000000  0.00000000  1
  F  F14  1  0.00000000  0.00000000  0.28710299  1
  F  F15  1  0.00000000  0.00000000  0.71289701  1
  Li  Li16  1  0.86071748  0.52422371  0.50000000  1
  Li  Li17  1  0.47577629  0.33649377  0.50000000  1
  Li  Li18  1  0.66350623  0.13928252  0.50000000  1
  Li  Li19  1  0.52422371  0.86071748  0.50000000  1
  Li  Li20  1  0.33649377  0.47577629  0.50000000  1
  Li  Li21  1  0.13928252  0.66350623  0.50000000  1
  Li  Li22  1  0.27612669  0.00000000  0.00000000  1
  Li  Li23  1  0.00000000  0.27612669  0.00000000  1
  Li  Li24  1  0.72387331  0.72387331  0.00000000  1
  Li  Li25  1  0.33333333  0.66666667  -0.00000000  1
  Li  Li26  1  0.66666667  0.33333333  0.00000000  1
  Li  Li27  1  0.33333333  0.66666667  0.30865818  1
  Li  Li28  1  0.33333333  0.66666667  0.69134182  1
  Li  Li29  1  0.66666667  0.33333333  0.69134182  1
  Li  Li30  1  0.66666667  0.33333333  0.30865818  1
  Li  Li31  1  0.00000000  0.00000000  0.50000000  1
