# generated using pymatgen
data_Li4TeF2
_symmetry_space_group_name_H-M   'P 1'
_cell_length_a   10.40605470
_cell_length_b   10.40605470
_cell_length_c   30.29369333
_cell_angle_alpha   90.00000000
_cell_angle_beta   90.00000000
_cell_angle_gamma   90.00000000
_symmetry_Int_Tables_number   1
_chemical_formula_structural   Li4TeF2
_chemical_formula_sum   'Li96 Te24 F48'
_cell_volume   3280.38210171
_cell_formula_units_Z   24
loop_
 _symmetry_equiv_pos_site_id
 _symmetry_equiv_pos_as_xyz
  1  'x, y, z'
loop_
 _atom_site_type_symbol
 _atom_site_label
 _atom_site_symmetry_multiplicity
 _atom_site_fract_x
 _atom_site_fract_y
 _atom_site_fract_z
 _atom_site_occupancy
  F  F0  1  0.97194521  0.33796778  0.08513829  1
  F  F1  1  -0.97194521  -0.33796778  0.08513829  1
  F  F2  1  -0.33796778  0.97194521  0.08513829  1
  F  F3  1  0.33796778  -0.97194521  0.08513829  1
  F  F4  1  -0.97194521  0.33796778  -0.08513829  1
  F  F5  1  0.97194521  -0.33796778  -0.08513829  1
  F  F6  1  0.33796778  0.97194521  -0.08513829  1
  F  F7  1  -0.33796778  -0.97194521  -0.08513829  1
  F  F8  1  -0.97194521  -0.33796778  -0.08513829  1
  F  F9  1  0.97194521  0.33796778  -0.08513829  1
  F  F10  1  0.33796778  -0.97194521  -0.08513829  1
  F  F11  1  -0.33796778  0.97194521  -0.08513829  1
  F  F12  1  0.97194521  -0.33796778  0.08513829  1
  F  F13  1  -0.97194521  0.33796778  0.08513829  1
  F  F14  1  -0.33796778  -0.97194521  0.08513829  1
  F  F15  1  0.33796778  0.97194521  0.08513829  1
  F  F16  1  0.03270668  0.36236932  0.60265450  1
  F  F17  1  0.96729332  0.63763068  0.60265450  1
  F  F18  1  0.63763068  0.03270668  0.60265450  1
  F  F19  1  0.36236932  0.96729332  0.60265450  1
  F  F20  1  0.96729332  0.36236932  0.39734550  1
  F  F21  1  0.03270668  0.63763068  0.39734550  1
  F  F22  1  0.36236932  0.03270668  0.39734550  1
  F  F23  1  0.63763068  0.96729332  0.39734550  1
  F  F24  1  0.96729332  0.63763068  0.39734550  1
  F  F25  1  0.03270668  0.36236932  0.39734550  1
  F  F26  1  0.36236932  0.96729332  0.39734550  1
  F  F27  1  0.63763068  0.03270668  0.39734550  1
  F  F28  1  0.03270668  0.63763068  0.60265450  1
  F  F29  1  0.96729332  0.36236932  0.60265450  1
  F  F30  1  0.63763068  0.96729332  0.60265450  1
  F  F31  1  0.36236932  0.03270668  0.60265450  1
  F  F32  1  0.50000000  0.50000000  0.50000000  1
  F  F33  1  0.93730561  0.50000000  0.05429589  1
  F  F34  1  0.06269439  0.50000000  0.05429589  1
  F  F35  1  0.50000000  0.93730561  0.05429589  1
  F  F36  1  0.50000000  0.06269439  0.05429589  1
  F  F37  1  0.06269439  0.50000000  0.94570411  1
  F  F38  1  0.93730561  0.50000000  0.94570411  1
  F  F39  1  0.50000000  0.93730561  0.94570411  1
  F  F40  1  0.50000000  0.06269439  0.94570411  1
  F  F41  1  0.35200195  0.50000000  0.50000000  1
  F  F42  1  0.64799805  0.50000000  0.50000000  1
  F  F43  1  0.50000000  0.35200195  0.50000000  1
  F  F44  1  0.50000000  0.64799805  0.50000000  1
  F  F45  1  0.00000000  0.00000000  0.00000000  1
  F  F46  1  0.00000000  0.00000000  0.16949198  1
  F  F47  1  0.00000000  0.00000000  0.83050802  1
  Li  Li48  1  0.37309155  0.14441739  0.30691126  1
  Li  Li49  1  0.62690845  0.85558261  0.30691126  1
  Li  Li50  1  0.85558261  0.37309155  0.30691126  1
  Li  Li51  1  0.14441739  0.62690845  0.30691126  1
  Li  Li52  1  0.62690845  0.14441739  0.69308874  1
  Li  Li53  1  0.37309155  0.85558261  0.69308874  1
  Li  Li54  1  0.14441739  0.37309155  0.69308874  1
  Li  Li55  1  0.85558261  0.62690845  0.69308874  1
  Li  Li56  1  0.62690845  0.85558261  0.69308874  1
  Li  Li57  1  0.37309155  0.14441739  0.69308874  1
  Li  Li58  1  0.14441739  0.62690845  0.69308874  1
  Li  Li59  1  0.85558261  0.37309155  0.69308874  1
  Li  Li60  1  0.37309155  0.85558261  0.30691126  1
  Li  Li61  1  0.62690845  0.14441739  0.30691126  1
  Li  Li62  1  0.85558261  0.62690845  0.30691126  1
  Li  Li63  1  0.14441739  0.37309155  0.30691126  1
  Li  Li64  1  0.15744937  0.15744937  0.62663445  1
  Li  Li65  1  0.84255063  0.84255063  0.62663445  1
  Li  Li66  1  0.84255063  0.15744937  0.62663445  1
  Li  Li67  1  0.15744937  0.84255063  0.62663445  1
  Li  Li68  1  0.84255063  0.15744937  0.37336555  1
  Li  Li69  1  0.15744937  0.84255063  0.37336555  1
  Li  Li70  1  0.15744937  0.15744937  0.37336555  1
  Li  Li71  1  0.84255063  0.84255063  0.37336555  1
  Li  Li72  1  0.50000000  0.50000000  0.12076345  1
  Li  Li73  1  0.50000000  0.50000000  0.87923655  1
  Li  Li74  1  0.59783462  0.85224489  0.84353239  1
  Li  Li75  1  0.40216538  0.14775511  0.84353239  1
  Li  Li76  1  0.14775511  0.59783462  0.84353239  1
  Li  Li77  1  0.85224489  0.40216538  0.84353239  1
  Li  Li78  1  0.40216538  0.85224489  0.15646761  1
  Li  Li79  1  0.59783462  0.14775511  0.15646761  1
  Li  Li80  1  0.85224489  0.59783462  0.15646761  1
  Li  Li81  1  0.14775511  0.40216538  0.15646761  1
  Li  Li82  1  0.40216538  0.14775511  0.15646761  1
  Li  Li83  1  0.59783462  0.85224489  0.15646761  1
  Li  Li84  1  0.85224489  0.40216538  0.15646761  1
  Li  Li85  1  0.14775511  0.59783462  0.15646761  1
  Li  Li86  1  0.59783462  0.14775511  0.84353239  1
  Li  Li87  1  0.40216538  0.85224489  0.84353239  1
  Li  Li88  1  0.14775511  0.40216538  0.84353239  1
  Li  Li89  1  0.85224489  0.59783462  0.84353239  1
  Li  Li90  1  0.00000000  0.50000000  0.00000000  1
  Li  Li91  1  0.50000000  0.00000000  0.00000000  1
  Li  Li92  1  0.88640417  0.88640417  0.00000000  1
  Li  Li93  1  0.11359583  0.11359583  0.00000000  1
  Li  Li94  1  0.11359583  0.88640417  0.00000000  1
  Li  Li95  1  0.88640417  0.11359583  -0.00000000  1
  Li  Li96  1  0.19890453  0.90667120  0.44453503  1
  Li  Li97  1  0.80109547  0.09332880  0.44453503  1
  Li  Li98  1  0.09332880  0.19890453  0.44453503  1
  Li  Li99  1  0.90667120  0.80109547  0.44453503  1
  Li  Li100  1  0.80109547  0.90667120  0.55546497  1
  Li  Li101  1  0.19890453  0.09332880  0.55546497  1
  Li  Li102  1  0.90667120  0.19890453  0.55546497  1
  Li  Li103  1  0.09332880  0.80109547  0.55546497  1
  Li  Li104  1  0.80109547  0.09332880  0.55546497  1
  Li  Li105  1  0.19890453  0.90667120  0.55546497  1
  Li  Li106  1  0.90667120  0.80109547  0.55546497  1
  Li  Li107  1  0.09332880  0.19890453  0.55546497  1
  Li  Li108  1  0.19890453  0.09332880  0.44453503  1
  Li  Li109  1  0.80109547  0.90667120  0.44453503  1
  Li  Li110  1  0.09332880  0.80109547  0.44453503  1
  Li  Li111  1  0.90667120  0.19890453  0.44453503  1
  Li  Li112  1  0.41764795  -0.00000000  0.18307070  1
  Li  Li113  1  0.58235205  0.00000000  0.18307070  1
  Li  Li114  1  0.00000000  0.41764795  0.18307070  1
  Li  Li115  1  0.00000000  0.58235205  0.18307070  1
  Li  Li116  1  0.58235205  0.00000000  0.81692930  1
  Li  Li117  1  0.41764795  -0.00000000  0.81692930  1
  Li  Li118  1  0.00000000  0.41764795  0.81692930  1
  Li  Li119  1  0.00000000  0.58235205  0.81692930  1
  Li  Li120  1  0.90253448  0.75748932  0.84641336  1
  Li  Li121  1  0.09746552  0.24251068  0.84641336  1
  Li  Li122  1  0.24251068  0.90253448  0.84641336  1
  Li  Li123  1  0.75748932  0.09746552  0.84641336  1
  Li  Li124  1  0.09746552  0.75748932  0.15358664  1
  Li  Li125  1  0.90253448  0.24251068  0.15358664  1
  Li  Li126  1  0.75748932  0.90253448  0.15358664  1
  Li  Li127  1  0.24251068  0.09746552  0.15358664  1
  Li  Li128  1  0.09746552  0.24251068  0.15358664  1
  Li  Li129  1  0.90253448  0.75748932  0.15358664  1
  Li  Li130  1  0.75748932  0.09746552  0.15358664  1
  Li  Li131  1  0.24251068  0.90253448  0.15358664  1
  Li  Li132  1  0.90253448  0.24251068  0.84641336  1
  Li  Li133  1  0.09746552  0.75748932  0.84641336  1
  Li  Li134  1  0.24251068  0.09746552  0.84641336  1
  Li  Li135  1  0.75748932  0.90253448  0.84641336  1
  Li  Li136  1  0.20410553  0.34133435  0.00000000  1
  Li  Li137  1  0.79589447  0.65866565  0.00000000  1
  Li  Li138  1  0.65866565  0.20410553  0.00000000  1
  Li  Li139  1  0.34133435  0.79589447  -0.00000000  1
  Li  Li140  1  0.79589447  0.34133435  -0.00000000  1
  Li  Li141  1  0.20410553  0.65866565  0.00000000  1
  Li  Li142  1  0.34133435  0.20410553  0.00000000  1
  Li  Li143  1  0.65866565  0.79589447  0.00000000  1
  Te  Te144  1  0.10425846  0.50000000  0.37005898  1
  Te  Te145  1  0.89574154  0.50000000  0.37005898  1
  Te  Te146  1  0.50000000  0.10425846  0.37005898  1
  Te  Te147  1  0.50000000  0.89574154  0.37005898  1
  Te  Te148  1  0.89574154  0.50000000  0.62994102  1
  Te  Te149  1  0.10425846  0.50000000  0.62994102  1
  Te  Te150  1  0.50000000  0.10425846  0.62994102  1
  Te  Te151  1  0.50000000  0.89574154  0.62994102  1
  Te  Te152  1  0.57396062  -0.00000000  0.50000000  1
  Te  Te153  1  0.42603938  0.00000000  0.50000000  1
  Te  Te154  1  0.00000000  0.57396062  0.50000000  1
  Te  Te155  1  0.00000000  0.42603938  0.50000000  1
  Te  Te156  1  0.23449888  0.00000000  0.91891678  1
  Te  Te157  1  0.76550112  -0.00000000  0.91891678  1
  Te  Te158  1  0.00000000  0.23449888  0.91891678  1
  Te  Te159  1  0.00000000  0.76550112  0.91891678  1
  Te  Te160  1  0.76550112  -0.00000000  0.08108322  1
  Te  Te161  1  0.23449888  0.00000000  0.08108322  1
  Te  Te162  1  0.00000000  0.23449888  0.08108322  1
  Te  Te163  1  0.00000000  0.76550112  0.08108322  1
  Te  Te164  1  0.00000000  0.50000000  0.12064802  1
  Te  Te165  1  0.50000000  0.00000000  0.12064802  1
  Te  Te166  1  0.00000000  0.50000000  0.87935198  1
  Te  Te167  1  0.50000000  0.00000000  0.87935198  1
