# generated using pymatgen
data_Li2Y2As4P3
_symmetry_space_group_name_H-M   'P 1'
_cell_length_a   5.08464443
_cell_length_b   5.08382002
_cell_length_c   6.88031067
_cell_angle_alpha   94.54497630
_cell_angle_beta   99.89801349
_cell_angle_gamma   108.25536342
_symmetry_Int_Tables_number   1
_chemical_formula_structural   Li2Y2As4P3
_chemical_formula_sum   'Li2 Y2 As4 P3'
_cell_volume   164.69441442
_cell_formula_units_Z   1
loop_
 _symmetry_equiv_pos_site_id
 _symmetry_equiv_pos_as_xyz
  1  'x, y, z'
loop_
 _atom_site_type_symbol
 _atom_site_label
 _atom_site_symmetry_multiplicity
 _atom_site_fract_x
 _atom_site_fract_y
 _atom_site_fract_z
 _atom_site_occupancy
  P  P0  1  0.00000000  0.00000000  0.00000000  1
  P  P1  1  0.50000000  0.50000000  0.50000000  1
  P  P2  1  0.25000000  0.25000000  0.25000000  1
  As  As3  1  0.75000000  0.25000000  0.00000000  1
  As  As4  1  0.25000000  0.75000000  0.50000000  1
  As  As5  1  0.52456511  0.86158482  0.79497891  1
  As  As6  1  0.83521092  0.74695439  0.71874765  1
  Li  Li7  1  0.97757813  0.07521578  0.09813159  1
  Li  Li8  1  0.30780659  0.62216663  0.68699833  1
  Y  Y9  1  0.84503831  0.16202227  0.67814158  1
  Y  Y10  1  0.78751698  0.31134215  0.19837908  1
