# generated using pymatgen
data_Li3Y2P3Se2
_symmetry_space_group_name_H-M   'P 1'
_cell_length_a   5.45935001
_cell_length_b   5.69629696
_cell_length_c   7.26815112
_cell_angle_alpha   93.88150441
_cell_angle_beta   98.45310965
_cell_angle_gamma   105.59046053
_symmetry_Int_Tables_number   1
_chemical_formula_structural   Li3Y2P3Se2
_chemical_formula_sum   'Li3 Y2 P3 Se2'
_cell_volume   213.97686066
_cell_formula_units_Z   1
loop_
 _symmetry_equiv_pos_site_id
 _symmetry_equiv_pos_as_xyz
  1  'x, y, z'
loop_
 _atom_site_type_symbol
 _atom_site_label
 _atom_site_symmetry_multiplicity
 _atom_site_fract_x
 _atom_site_fract_y
 _atom_site_fract_z
 _atom_site_occupancy
  Se  Se0  1  0.12500000  0.12500000  0.12500000  1
  Se  Se1  1  0.50000000  0.50000000  0.50000000  1
  Y  Y2  1  0.25000000  0.25000000  0.25000000  1
  Y  Y3  1  0.75000000  0.75000000  0.75000000  1
  P  P4  1  0.98512412  0.48861789  0.27643818  1
  P  P5  1  0.08993410  0.06266372  0.01481018  1
  P  P6  1  0.60317688  0.84939552  0.01270469  1
  Li  Li7  1  0.43643977  0.64868978  0.89789219  1
  Li  Li8  1  0.81373036  0.92880436  0.03899511  1
  Li  Li9  1  0.08218940  0.63608844  0.74847289  1
