# generated using pymatgen
data_LiYSbTe2P
_symmetry_space_group_name_H-M   'P 1'
_cell_length_a   4.96236028
_cell_length_b   5.18838140
_cell_length_c   7.02245478
_cell_angle_alpha   95.03711297
_cell_angle_beta   100.96978485
_cell_angle_gamma   110.23208084
_symmetry_Int_Tables_number   1
_chemical_formula_structural   LiYSbTe2P
_chemical_formula_sum   'Li2 Y2 Sb2 Te4 P2'
_cell_volume   164.21687241
_cell_formula_units_Z   2
loop_
 _symmetry_equiv_pos_site_id
 _symmetry_equiv_pos_as_xyz
  1  'x, y, z'
loop_
 _atom_site_type_symbol
 _atom_site_label
 _atom_site_symmetry_multiplicity
 _atom_site_fract_x
 _atom_site_fract_y
 _atom_site_fract_z
 _atom_site_occupancy
  Te  Te0  1  0.12500000  0.00000000  0.25000000  1
  Te  Te1  1  0.00000000  0.00000000  0.00000000  1
  Te  Te2  1  0.37500000  0.00000000  0.25000000  1
  Te  Te3  1  0.25000000  0.25000000  0.25000000  1
  Y  Y4  1  0.00000000  0.25000000  0.12500000  1
  Y  Y5  1  0.58281305  0.68926836  0.39355317  1
  P  P6  1  0.33214385  0.30209581  0.54972748  1
  P  P7  1  0.23634396  0.30092017  0.18411820  1
  Li  Li8  1  0.18161464  0.73015970  0.73220971  1
  Li  Li9  1  0.19488886  0.22048278  0.22473432  1
  Sb  Sb10  1  0.45771679  0.31343802  0.61106007  1
  Sb  Sb11  1  0.28024083  0.91122818  0.80366352  1
