# generated using pymatgen
data_Li2Y2MoP3Se2
_symmetry_space_group_name_H-M   'P 1'
_cell_length_a   5.65610013
_cell_length_b   5.99568165
_cell_length_c   7.40630267
_cell_angle_alpha   93.63653353
_cell_angle_beta   97.91961400
_cell_angle_gamma   104.60650987
_symmetry_Int_Tables_number   1
_chemical_formula_structural   Li2Y2MoP3Se2
_chemical_formula_sum   'Li2 Y2 Mo1 P3 Se2'
_cell_volume   239.46211334
_cell_formula_units_Z   1
loop_
 _symmetry_equiv_pos_site_id
 _symmetry_equiv_pos_as_xyz
  1  'x, y, z'
loop_
 _atom_site_type_symbol
 _atom_site_label
 _atom_site_symmetry_multiplicity
 _atom_site_fract_x
 _atom_site_fract_y
 _atom_site_fract_z
 _atom_site_occupancy
  Se  Se0  1  0.12500000  0.00000000  0.25000000  1
  Se  Se1  1  0.00000000  0.00000000  0.00000000  1
  P  P2  1  0.37500000  0.00000000  0.25000000  1
  P  P3  1  0.25000000  0.25000000  0.25000000  1
  P  P4  1  0.00000000  0.25000000  0.12500000  1
  Mo  Mo5  1  0.85526891  0.97069391  0.22995783  1
  Li  Li6  1  0.18953092  0.49608319  0.72691176  1
  Li  Li7  1  0.34660242  0.14533938  0.71472017  1
  Y  Y8  1  0.91840425  0.25980913  0.27764907  1
  Y  Y9  1  0.22358295  0.66523940  0.51655894  1
