# generated using pymatgen
data_Li2Y2As2P3
_symmetry_space_group_name_H-M   'P 1'
_cell_length_a   4.05333244
_cell_length_b   4.30102185
_cell_length_c   6.51462548
_cell_angle_alpha   96.33210503
_cell_angle_beta   102.81487438
_cell_angle_gamma   111.63730763
_symmetry_Int_Tables_number   1
_chemical_formula_structural   Li2Y2As2P3
_chemical_formula_sum   'Li2 Y2 As2 P3'
_cell_volume   100.60230850
_cell_formula_units_Z   1
loop_
 _symmetry_equiv_pos_site_id
 _symmetry_equiv_pos_as_xyz
  1  'x, y, z'
loop_
 _atom_site_type_symbol
 _atom_site_label
 _atom_site_symmetry_multiplicity
 _atom_site_fract_x
 _atom_site_fract_y
 _atom_site_fract_z
 _atom_site_occupancy
  Y  Y0  1  0.12500000  0.12500000  0.12500000  1
  Y  Y1  1  0.50000000  0.50000000  0.50000000  1
  P  P2  1  0.25000000  0.25000000  0.25000000  1
  P  P3  1  0.75000000  0.75000000  0.75000000  1
  P  P4  1  0.32149465  0.53744465  0.70137845  1
  As  As5  1  0.09620084  0.66114458  0.95826301  1
  As  As6  1  0.11789857  0.03805304  0.94910548  1
  Li  Li7  1  0.64871633  0.81180318  0.36864935  1
  Li  Li8  1  0.89657897  0.81969027  0.05830942  1
