# generated using pymatgen
data_Li2Y2MoP3Se2
_symmetry_space_group_name_H-M   'P 1'
_cell_length_a   5.19804462
_cell_length_b   5.54543837
_cell_length_c   7.15297235
_cell_angle_alpha   94.44581366
_cell_angle_beta   99.29190066
_cell_angle_gamma   105.96102887
_symmetry_Int_Tables_number   1
_chemical_formula_structural   Li2Y2MoP3Se2
_chemical_formula_sum   'Li2 Y2 Mo1 P3 Se2'
_cell_volume   194.01592527
_cell_formula_units_Z   1
loop_
 _symmetry_equiv_pos_site_id
 _symmetry_equiv_pos_as_xyz
  1  'x, y, z'
loop_
 _atom_site_type_symbol
 _atom_site_label
 _atom_site_symmetry_multiplicity
 _atom_site_fract_x
 _atom_site_fract_y
 _atom_site_fract_z
 _atom_site_occupancy
  Se  Se0  1  0.00000000  0.00000000  0.00000000  1
  Se  Se1  1  0.50000000  0.50000000  0.50000000  1
  P  P2  1  0.25000000  0.25000000  0.25000000  1
  P  P3  1  0.75000000  0.25000000  0.00000000  1
  P  P4  1  0.25000000  0.75000000  0.50000000  1
  Mo  Mo5  1  0.44467434  0.40524250  0.31050222  1
  Li  Li6  1  0.89165111  0.00620721  0.01185505  1
  Li  Li7  1  0.81610352  0.99516374  0.35748235  1
  Y  Y8  1  0.04601933  0.57966030  0.94093201  1
  Y  Y9  1  0.37962644  0.95710183  0.41522238  1
