# generated using pymatgen
data_LiF
_symmetry_space_group_name_H-M   'P 1'
_cell_length_a   13.24388577
_cell_length_b   13.24388577
_cell_length_c   11.38642721
_cell_angle_alpha   90.00000000
_cell_angle_beta   90.00000000
_cell_angle_gamma   90.00000000
_symmetry_Int_Tables_number   1
_chemical_formula_structural   LiF
_chemical_formula_sum   'Li64 F64'
_cell_volume   1997.18514424
_cell_formula_units_Z   64
loop_
 _symmetry_equiv_pos_site_id
 _symmetry_equiv_pos_as_xyz
  1  'x, y, z'
loop_
 _atom_site_type_symbol
 _atom_site_label
 _atom_site_symmetry_multiplicity
 _atom_site_fract_x
 _atom_site_fract_y
 _atom_site_fract_z
 _atom_site_occupancy
  F  F0  1  0.01993234  0.26993234  0.12500000  1
  F  F1  1  0.48006766  0.73006766  0.62500000  1
  F  F2  1  0.98006766  0.76993234  0.37500000  1
  F  F3  1  0.51993234  0.23006766  0.87500000  1
  F  F4  1  0.98006766  0.73006766  0.87500000  1
  F  F5  1  0.51993234  0.26993234  0.37500000  1
  F  F6  1  0.01993234  0.23006766  0.62500000  1
  F  F7  1  0.48006766  0.76993234  0.12500000  1
  F  F8  1  0.51993234  0.76993234  0.62500000  1
  F  F9  1  0.98006766  0.23006766  0.12500000  1
  F  F10  1  0.48006766  0.26993234  0.87500000  1
  F  F11  1  0.01993234  0.73006766  0.37500000  1
  F  F12  1  0.48006766  0.23006766  0.37500000  1
  F  F13  1  0.01993234  0.76993234  0.87500000  1
  F  F14  1  0.51993234  0.73006766  0.12500000  1
  F  F15  1  0.98006766  0.26993234  0.62500000  1
  F  F16  1  0.00662365  0.31531010  0.45292323  1
  F  F17  1  0.49337635  0.68468990  0.95292323  1
  F  F18  1  0.93468990  0.75662365  0.70292323  1
  F  F19  1  0.56531010  0.24337635  0.20292323  1
  F  F20  1  0.49337635  0.31531010  0.54707677  1
  F  F21  1  0.00662365  0.68468990  0.04707677  1
  F  F22  1  0.56531010  0.75662365  0.29707677  1
  F  F23  1  0.93468990  0.24337635  0.79707677  1
  F  F24  1  0.99337635  0.68468990  0.54707677  1
  F  F25  1  0.50662365  0.31531010  0.04707677  1
  F  F26  1  0.06531010  0.24337635  0.29707677  1
  F  F27  1  0.43468990  0.75662365  0.79707677  1
  F  F28  1  0.50662365  0.68468990  0.45292323  1
  F  F29  1  0.99337635  0.31531010  0.95292323  1
  F  F30  1  0.43468990  0.24337635  0.70292323  1
  F  F31  1  0.06531010  0.75662365  0.20292323  1
  F  F32  1  0.50662365  0.81531010  0.95292323  1
  F  F33  1  0.99337635  0.18468990  0.45292323  1
  F  F34  1  0.43468990  0.25662365  0.20292323  1
  F  F35  1  0.06531010  0.74337635  0.70292323  1
  F  F36  1  0.99337635  0.81531010  0.04707677  1
  F  F37  1  0.50662365  0.18468990  0.54707677  1
  F  F38  1  0.06531010  0.25662365  0.79707677  1
  F  F39  1  0.43468990  0.74337635  0.29707677  1
  F  F40  1  0.49337635  0.18468990  0.04707677  1
  F  F41  1  0.00662365  0.81531010  0.54707677  1
  F  F42  1  0.56531010  0.74337635  0.79707677  1
  F  F43  1  0.93468990  0.25662365  0.29707677  1
  F  F44  1  0.00662365  0.18468990  0.95292323  1
  F  F45  1  0.49337635  0.81531010  0.45292323  1
  F  F46  1  0.93468990  0.74337635  0.20292323  1
  F  F47  1  0.56531010  0.25662365  0.70292323  1
  F  F48  1  0.00000000  0.00000000  0.00000000  1
  F  F49  1  0.50000000  0.00000000  0.50000000  1
  F  F50  1  0.25000000  0.75000000  0.25000000  1
  F  F51  1  0.25000000  0.25000000  0.75000000  1
  F  F52  1  0.50000000  0.00000000  0.00000000  1
  F  F53  1  0.00000000  0.00000000  0.50000000  1
  F  F54  1  0.25000000  0.75000000  0.75000000  1
  F  F55  1  0.25000000  0.25000000  0.25000000  1
  F  F56  1  0.50000000  0.50000000  0.50000000  1
  F  F57  1  0.00000000  0.50000000  0.00000000  1
  F  F58  1  0.75000000  0.25000000  0.75000000  1
  F  F59  1  0.75000000  0.75000000  0.25000000  1
  F  F60  1  0.00000000  0.50000000  0.50000000  1
  F  F61  1  0.50000000  0.50000000  0.00000000  1
  F  F62  1  0.75000000  0.25000000  0.25000000  1
  F  F63  1  0.75000000  0.75000000  0.75000000  1
  Li  Li64  1  0.21012385  0.38994546  0.59293637  1
  Li  Li65  1  0.28987615  -0.38994546  1.09293637  1
  Li  Li66  1  -0.13994546  0.96012385  0.84293637  1
  Li  Li67  1  0.63994546  0.03987615  1.34293637  1
  Li  Li68  1  0.28987615  0.38994546  -0.59293637  1
  Li  Li69  1  0.21012385  -0.38994546  -0.09293637  1
  Li  Li70  1  0.63994546  0.96012385  0.15706363  1
  Li  Li71  1  -0.13994546  0.03987615  -0.34293637  1
  Li  Li72  1  -0.21012385  -0.38994546  -0.59293637  1
  Li  Li73  1  0.71012385  0.38994546  -0.09293637  1
  Li  Li74  1  1.13994546  0.03987615  0.15706363  1
  Li  Li75  1  0.36005454  0.96012385  -0.34293637  1
  Li  Li76  1  0.71012385  -0.38994546  0.59293637  1
  Li  Li77  1  -0.21012385  0.38994546  1.09293637  1
  Li  Li78  1  0.36005454  0.03987615  0.84293637  1
  Li  Li79  1  1.13994546  0.96012385  1.34293637  1
  Li  Li80  1  0.71012385  0.88994546  1.09293637  1
  Li  Li81  1  0.78987615  0.11005454  1.59293637  1
  Li  Li82  1  0.36005454  1.46012385  1.34293637  1
  Li  Li83  1  1.13994546  0.53987615  1.84293637  1
  Li  Li84  1  0.78987615  0.88994546  -0.09293637  1
  Li  Li85  1  0.71012385  0.11005454  0.40706363  1
  Li  Li86  1  1.13994546  1.46012385  0.65706363  1
  Li  Li87  1  0.36005454  0.53987615  0.15706363  1
  Li  Li88  1  0.28987615  0.11005454  -0.09293637  1
  Li  Li89  1  1.21012385  0.88994546  0.40706363  1
  Li  Li90  1  1.63994546  0.53987615  0.65706363  1
  Li  Li91  1  0.86005454  1.46012385  0.15706363  1
  Li  Li92  1  1.21012385  0.11005454  1.09293637  1
  Li  Li93  1  0.28987615  0.88994546  1.59293637  1
  Li  Li94  1  0.86005454  0.53987615  1.34293637  1
  Li  Li95  1  1.63994546  1.46012385  1.84293637  1
  Li  Li96  1  0.49090365  0.55012514  0.19975062  1
  Li  Li97  1  0.00909635  0.44987486  0.69975062  1
  Li  Li98  1  0.69987486  0.24090365  0.44975062  1
  Li  Li99  1  0.80012514  0.75909635  0.94975062  1
  Li  Li100  1  0.00909635  0.55012514  0.80024938  1
  Li  Li101  1  0.49090365  0.44987486  0.30024938  1
  Li  Li102  1  0.80012514  0.24090365  0.55024938  1
  Li  Li103  1  0.69987486  0.75909635  0.05024938  1
  Li  Li104  1  0.50909635  0.44987486  0.80024938  1
  Li  Li105  1  0.99090365  0.55012514  0.30024938  1
  Li  Li106  1  0.30012514  0.75909635  0.55024938  1
  Li  Li107  1  0.19987486  0.24090365  0.05024938  1
  Li  Li108  1  0.99090365  0.44987486  0.19975062  1
  Li  Li109  1  0.50909635  0.55012514  0.69975062  1
  Li  Li110  1  0.19987486  0.75909635  0.44975062  1
  Li  Li111  1  0.30012514  0.24090365  0.94975062  1
  Li  Li112  1  0.99090365  0.05012514  0.69975062  1
  Li  Li113  1  0.50909635  0.94987486  0.19975062  1
  Li  Li114  1  0.19987486  0.74090365  0.94975062  1
  Li  Li115  1  0.30012514  0.25909635  0.44975062  1
  Li  Li116  1  0.50909635  0.05012514  0.30024938  1
  Li  Li117  1  0.99090365  0.94987486  0.80024938  1
  Li  Li118  1  0.30012514  0.74090365  0.05024938  1
  Li  Li119  1  0.19987486  0.25909635  0.55024938  1
  Li  Li120  1  0.00909635  0.94987486  0.30024938  1
  Li  Li121  1  0.49090365  0.05012514  0.80024938  1
  Li  Li122  1  0.80012514  0.25909635  0.05024938  1
  Li  Li123  1  0.69987486  0.74090365  0.55024938  1
  Li  Li124  1  0.49090365  0.94987486  0.69975062  1
  Li  Li125  1  0.00909635  0.05012514  0.19975062  1
  Li  Li126  1  0.69987486  0.25909635  0.94975062  1
  Li  Li127  1  0.80012514  0.74090365  0.44975062  1
