# generated using pymatgen
data_LiSb2As2P2Se
_symmetry_space_group_name_H-M   'P 1'
_cell_length_a   5.18662474
_cell_length_b   5.23269701
_cell_length_c   7.32686853
_cell_angle_alpha   94.52668479
_cell_angle_beta   99.85817840
_cell_angle_gamma   108.18189371
_symmetry_Int_Tables_number   1
_chemical_formula_structural   LiSb2As2P2Se
_chemical_formula_sum   'Li1 Sb2 As2 P2 Se1'
_cell_volume   184.26353351
_cell_formula_units_Z   1
loop_
 _symmetry_equiv_pos_site_id
 _symmetry_equiv_pos_as_xyz
  1  'x, y, z'
loop_
 _atom_site_type_symbol
 _atom_site_label
 _atom_site_symmetry_multiplicity
 _atom_site_fract_x
 _atom_site_fract_y
 _atom_site_fract_z
 _atom_site_occupancy
  Se  Se0  1  0.00000000  0.00000000  0.00000000  1
  P  P1  1  0.50000000  0.50000000  0.50000000  1
  P  P2  1  0.25000000  0.25000000  0.25000000  1
  As  As3  1  0.75000000  0.25000000  0.00000000  1
  As  As4  1  0.25000000  0.75000000  0.50000000  1
  Li  Li5  1  0.32486026  0.53387062  0.91782016  1
  Sb  Sb6  1  0.43512103  0.78228530  0.36988352  1
  Sb  Sb7  1  0.50688517  0.25044935  0.64749208  1
