# generated using pymatgen
data_Li3Y2As4P2Se
_symmetry_space_group_name_H-M   'P 1'
_cell_length_a   5.41908343
_cell_length_b   5.58552640
_cell_length_c   6.99780225
_cell_angle_alpha   93.54145010
_cell_angle_beta   97.64622932
_cell_angle_gamma   104.05085453
_symmetry_Int_Tables_number   1
_chemical_formula_structural   Li3Y2As4P2Se
_chemical_formula_sum   'Li3 Y2 As4 P2 Se1'
_cell_volume   202.67104274
_cell_formula_units_Z   1
loop_
 _symmetry_equiv_pos_site_id
 _symmetry_equiv_pos_as_xyz
  1  'x, y, z'
loop_
 _atom_site_type_symbol
 _atom_site_label
 _atom_site_symmetry_multiplicity
 _atom_site_fract_x
 _atom_site_fract_y
 _atom_site_fract_z
 _atom_site_occupancy
  Se  Se0  1  0.00000000  0.00000000  0.00000000  1
  P  P1  1  0.50000000  0.50000000  0.50000000  1
  P  P2  1  0.50000000  0.50000000  0.00000000  1
  As  As3  1  0.50000000  0.00000000  0.50000000  1
  As  As4  1  0.00000000  0.50000000  0.50000000  1
  As  As5  1  0.43576221  0.33671534  0.20695398  1
  As  As6  1  0.80079627  0.01495735  0.52951986  1
  Li  Li7  1  0.09459597  0.06287140  0.22378033  1
  Li  Li8  1  0.96618157  0.86032416  0.02283915  1
  Li  Li9  1  0.90953080  0.71087228  0.71112482  1
  Y  Y10  1  0.22182803  0.65363442  0.60857789  1
  Y  Y11  1  0.63585306  0.58557898  0.73336346  1
