# generated using pymatgen
data_LiF
_symmetry_space_group_name_H-M   'P 1'
_cell_length_a   13.85652944
_cell_length_b   13.85652944
_cell_length_c   9.73878986
_cell_angle_alpha   90.00000000
_cell_angle_beta   90.00000000
_cell_angle_gamma   120.00000000
_symmetry_Int_Tables_number   1
_chemical_formula_structural   LiF
_chemical_formula_sum   'Li44 F44'
_cell_volume   1619.36431363
_cell_formula_units_Z   44
loop_
 _symmetry_equiv_pos_site_id
 _symmetry_equiv_pos_as_xyz
  1  'x, y, z'
loop_
 _atom_site_type_symbol
 _atom_site_label
 _atom_site_symmetry_multiplicity
 _atom_site_fract_x
 _atom_site_fract_y
 _atom_site_fract_z
 _atom_site_occupancy
  F  F0  1  0.13590074  0.25955946  0.00000000  1
  F  F1  1  0.74044054  0.87634128  0.00000000  1
  F  F2  1  0.12365872  0.86409926  0.00000000  1
  F  F3  1  0.25955946  0.13590074  0.00000000  1
  F  F4  1  0.87634128  0.74044054  0.00000000  1
  F  F5  1  0.86409926  0.12365872  0.00000000  1
  F  F6  1  0.49729986  -0.00000000  0.50000000  1
  F  F7  1  0.00000000  0.49729986  0.50000000  1
  F  F8  1  0.50270014  0.50270014  0.50000000  1
  F  F9  1  0.05661774  0.00000000  0.63011839  1
  F  F10  1  0.00000000  0.05661774  0.63011839  1
  F  F11  1  0.94338226  0.94338226  0.63011839  1
  F  F12  1  0.05661774  0.00000000  0.36988161  1
  F  F13  1  0.00000000  0.05661774  0.36988161  1
  F  F14  1  0.94338226  0.94338226  0.36988161  1
  F  F15  1  0.00000000  0.00000000  0.00000000  1
  F  F16  1  0.49840457  0.39538367  0.03511855  1
  F  F17  1  0.60461633  0.10302090  0.03511855  1
  F  F18  1  0.89697910  0.50159543  0.03511855  1
  F  F19  1  0.49840457  0.39538367  0.96488145  1
  F  F20  1  0.60461633  0.10302090  0.96488145  1
  F  F21  1  0.89697910  0.50159543  0.96488145  1
  F  F22  1  0.39538367  0.49840457  0.96488145  1
  F  F23  1  0.10302090  0.60461633  0.96488145  1
  F  F24  1  0.50159543  0.89697910  0.96488145  1
  F  F25  1  0.39538367  0.49840457  0.03511855  1
  F  F26  1  0.10302090  0.60461633  0.03511855  1
  F  F27  1  0.50159543  0.89697910  0.03511855  1
  F  F28  1  0.06390415  0.74478280  0.89825321  1
  F  F29  1  0.25521720  0.31912134  0.89825321  1
  F  F30  1  0.68087866  0.93609585  0.89825321  1
  F  F31  1  0.06390415  0.74478280  0.10174679  1
  F  F32  1  0.25521720  0.31912134  0.10174679  1
  F  F33  1  0.68087866  0.93609585  0.10174679  1
  F  F34  1  0.74478280  0.06390415  0.10174679  1
  F  F35  1  0.31912134  0.25521720  0.10174679  1
  F  F36  1  0.93609585  0.68087866  0.10174679  1
  F  F37  1  0.74478280  0.06390415  0.89825321  1
  F  F38  1  0.31912134  0.25521720  0.89825321  1
  F  F39  1  0.93609585  0.68087866  0.89825321  1
  F  F40  1  0.33333333  0.66666667  0.85136448  1
  F  F41  1  0.33333333  0.66666667  0.14863552  1
  F  F42  1  0.66666667  0.33333333  0.14863552  1
  F  F43  1  0.66666667  0.33333333  0.85136448  1
  Li  Li44  1  0.16191489  0.54723692  0.12650273  1
  Li  Li45  1  -0.54723692  -0.38532204  0.12650273  1
  Li  Li46  1  0.38532204  -0.16191489  0.12650273  1
  Li  Li47  1  0.16191489  0.54723692  -0.12650273  1
  Li  Li48  1  -0.54723692  -0.38532204  -0.12650273  1
  Li  Li49  1  0.38532204  -0.16191489  -0.12650273  1
  Li  Li50  1  0.54723692  0.16191489  -0.12650273  1
  Li  Li51  1  -0.38532204  -0.54723692  -0.12650273  1
  Li  Li52  1  -0.16191489  0.38532204  -0.12650273  1
  Li  Li53  1  0.54723692  0.16191489  0.12650273  1
  Li  Li54  1  -0.38532204  -0.54723692  0.12650273  1
  Li  Li55  1  -0.16191489  0.38532204  0.12650273  1
  Li  Li56  1  0.23096192  -0.00000000  0.50000000  1
  Li  Li57  1  0.00000000  0.23096192  0.50000000  1
  Li  Li58  1  0.76903808  0.76903808  0.50000000  1
  Li  Li59  1  0.70899952  0.79633436  0.92036040  1
  Li  Li60  1  0.20366564  0.91266515  0.92036040  1
  Li  Li61  1  0.08733485  0.29100048  0.92036040  1
  Li  Li62  1  0.70899952  0.79633436  0.07963960  1
  Li  Li63  1  0.20366564  0.91266515  0.07963960  1
  Li  Li64  1  0.08733485  0.29100048  0.07963960  1
  Li  Li65  1  0.79633436  0.70899952  0.07963960  1
  Li  Li66  1  0.91266515  0.20366564  0.07963960  1
  Li  Li67  1  0.29100048  0.08733485  0.07963960  1
  Li  Li68  1  0.79633436  0.70899952  0.92036040  1
  Li  Li69  1  0.91266515  0.20366564  0.92036040  1
  Li  Li70  1  0.29100048  0.08733485  0.92036040  1
  Li  Li71  1  0.51038110  -0.00000000  0.27757316  1
  Li  Li72  1  0.00000000  0.51038110  0.27757316  1
  Li  Li73  1  0.48961890  0.48961890  0.27757316  1
  Li  Li74  1  0.51038110  -0.00000000  0.72242684  1
  Li  Li75  1  0.00000000  0.51038110  0.72242684  1
  Li  Li76  1  0.48961890  0.48961890  0.72242684  1
  Li  Li77  1  0.33333333  0.66666667  0.00000000  1
  Li  Li78  1  0.66666667  0.33333333  0.00000000  1
  Li  Li79  1  0.33333333  0.66666667  0.50000000  1
  Li  Li80  1  0.66666667  0.33333333  0.50000000  1
  Li  Li81  1  0.16124091  0.49860367  0.00000000  1
  Li  Li82  1  0.50139633  0.66263725  0.00000000  1
  Li  Li83  1  0.33736275  0.83875909  0.00000000  1
  Li  Li84  1  0.49860367  0.16124091  0.00000000  1
  Li  Li85  1  0.66263725  0.50139633  0.00000000  1
  Li  Li86  1  0.83875909  0.33736275  -0.00000000  1
  Li  Li87  1  0.00000000  0.00000000  0.50000000  1
