# generated using pymatgen
data_LiY2P3Se2
_symmetry_space_group_name_H-M   'P 1'
_cell_length_a   5.35428221
_cell_length_b   5.53992291
_cell_length_c   7.22510808
_cell_angle_alpha   94.12894458
_cell_angle_beta   98.99198291
_cell_angle_gamma   106.58432936
_symmetry_Int_Tables_number   1
_chemical_formula_structural   LiY2P3Se2
_chemical_formula_sum   'Li1 Y2 P3 Se2'
_cell_volume   201.32859468
_cell_formula_units_Z   1
loop_
 _symmetry_equiv_pos_site_id
 _symmetry_equiv_pos_as_xyz
  1  'x, y, z'
loop_
 _atom_site_type_symbol
 _atom_site_label
 _atom_site_symmetry_multiplicity
 _atom_site_fract_x
 _atom_site_fract_y
 _atom_site_fract_z
 _atom_site_occupancy
  Se  Se0  1  0.00000000  0.00000000  0.00000000  1
  Se  Se1  1  0.33300000  0.66700000  0.25000000  1
  Y  Y2  1  0.66700000  0.33300000  0.50000000  1
  Y  Y3  1  0.00000000  0.00000000  0.75000000  1
  P  P4  1  0.24528148  0.03169068  0.04828068  1
  P  P5  1  0.51263510  0.18146708  0.76476447  1
  P  P6  1  0.95200638  0.29718838  0.89552514  1
  Li  Li7  1  0.45529580  0.40633281  0.99495537  1
