# generated using pymatgen
data_LiF
_symmetry_space_group_name_H-M   'P 1'
_cell_length_a   7.23840836
_cell_length_b   7.23840836
_cell_length_c   15.79267983
_cell_angle_alpha   90.00000000
_cell_angle_beta   90.00000000
_cell_angle_gamma   120.00000000
_symmetry_Int_Tables_number   1
_chemical_formula_structural   LiF
_chemical_formula_sum   'Li42 F42'
_cell_volume   716.59310258
_cell_formula_units_Z   42
loop_
 _symmetry_equiv_pos_site_id
 _symmetry_equiv_pos_as_xyz
  1  'x, y, z'
loop_
 _atom_site_type_symbol
 _atom_site_label
 _atom_site_symmetry_multiplicity
 _atom_site_fract_x
 _atom_site_fract_y
 _atom_site_fract_z
 _atom_site_occupancy
  F  F0  1  0.00000000  0.00000000  0.25000000  1
  F  F1  1  0.00000000  0.00000000  0.75000000  1
  F  F2  1  0.66666667  0.33333333  0.58333333  1
  F  F3  1  0.66666667  0.33333333  0.08333333  1
  F  F4  1  0.33333333  0.66666667  0.91666667  1
  F  F5  1  0.33333333  0.66666667  0.41666667  1
  F  F6  1  0.84403547  0.12846035  0.22016372  1
  F  F7  1  0.87153965  0.71557513  0.22016372  1
  F  F8  1  0.28442487  0.15596453  0.22016372  1
  F  F9  1  0.12846035  0.84403547  0.27983628  1
  F  F10  1  0.71557513  0.87153965  0.27983628  1
  F  F11  1  0.15596453  0.28442487  0.27983628  1
  F  F12  1  0.15596453  0.87153965  0.77983628  1
  F  F13  1  0.12846035  0.28442487  0.77983628  1
  F  F14  1  0.71557513  0.84403547  0.77983628  1
  F  F15  1  0.87153965  0.15596453  0.72016372  1
  F  F16  1  0.28442487  0.12846035  0.72016372  1
  F  F17  1  0.84403547  0.71557513  0.72016372  1
  F  F18  1  0.51070214  0.46179368  0.55349705  1
  F  F19  1  0.53820632  0.04890846  0.55349705  1
  F  F20  1  0.95109154  0.48929786  0.55349705  1
  F  F21  1  0.79512702  0.17736881  0.61316961  1
  F  F22  1  0.38224179  0.20487298  0.61316961  1
  F  F23  1  0.82263119  0.61775821  0.61316961  1
  F  F24  1  0.82263119  0.20487298  0.11316961  1
  F  F25  1  0.79512702  0.61775821  0.11316961  1
  F  F26  1  0.38224179  0.17736881  0.11316961  1
  F  F27  1  0.53820632  0.48929786  0.05349705  1
  F  F28  1  0.95109154  0.46179368  0.05349705  1
  F  F29  1  0.51070214  0.04890846  0.05349705  1
  F  F30  1  0.17736881  0.79512702  0.88683039  1
  F  F31  1  0.20487298  0.38224179  0.88683039  1
  F  F32  1  0.61775821  0.82263119  0.88683039  1
  F  F33  1  0.46179368  0.51070214  0.94650295  1
  F  F34  1  0.04890846  0.53820632  0.94650295  1
  F  F35  1  0.48929786  0.95109154  0.94650295  1
  F  F36  1  0.48929786  0.53820632  0.44650295  1
  F  F37  1  0.46179368  0.95109154  0.44650295  1
  F  F38  1  0.04890846  0.51070214  0.44650295  1
  F  F39  1  0.20487298  0.82263119  0.38683039  1
  F  F40  1  0.61775821  0.79512702  0.38683039  1
  F  F41  1  0.17736881  0.38224179  0.38683039  1
  Li  Li42  1  0.97322019  0.68524799  0.03141299  1
  Li  Li43  1  -0.68524799  0.28797221  0.03141299  1
  Li  Li44  1  -0.28797221  -0.97322019  0.03141299  1
  Li  Li45  1  0.68524799  0.97322019  0.46858701  1
  Li  Li46  1  0.28797221  -0.68524799  0.46858701  1
  Li  Li47  1  -0.97322019  -0.28797221  0.46858701  1
  Li  Li48  1  -0.97322019  -0.68524799  -0.03141299  1
  Li  Li49  1  0.68524799  -0.28797221  -0.03141299  1
  Li  Li50  1  0.28797221  0.97322019  -0.03141299  1
  Li  Li51  1  -0.68524799  -0.97322019  0.53141299  1
  Li  Li52  1  -0.28797221  0.68524799  0.53141299  1
  Li  Li53  1  0.97322019  0.28797221  0.53141299  1
  Li  Li54  1  1.63988686  1.01858132  0.36474632  1
  Li  Li55  1  -0.01858132  0.62130554  0.36474632  1
  Li  Li56  1  0.37869446  -0.63988686  0.36474632  1
  Li  Li57  1  1.35191466  1.30655353  0.80192035  1
  Li  Li58  1  0.95463887  -0.35191466  0.80192035  1
  Li  Li59  1  -0.30655353  0.04536113  0.80192035  1
  Li  Li60  1  -0.30655353  -0.35191466  0.30192035  1
  Li  Li61  1  1.35191466  0.04536113  0.30192035  1
  Li  Li62  1  0.95463887  1.30655353  0.30192035  1
  Li  Li63  1  -0.01858132  -0.63988686  0.86474632  1
  Li  Li64  1  0.37869446  1.01858132  0.86474632  1
  Li  Li65  1  1.63988686  0.62130554  0.86474632  1
  Li  Li66  1  1.30655353  1.35191466  0.69807965  1
  Li  Li67  1  -0.35191466  0.95463887  0.69807965  1
  Li  Li68  1  0.04536113  -0.30655353  0.69807965  1
  Li  Li69  1  1.01858132  1.63988686  1.13525368  1
  Li  Li70  1  0.62130554  -0.01858132  1.13525368  1
  Li  Li71  1  -0.63988686  0.37869446  1.13525368  1
  Li  Li72  1  -0.63988686  -0.01858132  0.63525368  1
  Li  Li73  1  1.01858132  0.37869446  0.63525368  1
  Li  Li74  1  0.62130554  1.63988686  0.63525368  1
  Li  Li75  1  -0.35191466  -0.30655353  1.19807965  1
  Li  Li76  1  0.04536113  1.35191466  1.19807965  1
  Li  Li77  1  1.30655353  0.95463887  1.19807965  1
  Li  Li78  1  0.00000000  0.00000000  0.00000000  1
  Li  Li79  1  0.00000000  0.00000000  0.50000000  1
  Li  Li80  1  0.66666667  0.33333333  0.33333333  1
  Li  Li81  1  0.66666667  0.33333333  0.83333333  1
  Li  Li82  1  0.33333333  0.66666667  0.66666667  1
  Li  Li83  1  0.33333333  0.66666667  0.16666667  1
