# generated using pymatgen
data_LiY2Cu3P2
_symmetry_space_group_name_H-M   'P 1'
_cell_length_a   3.64759485
_cell_length_b   3.94703410
_cell_length_c   6.15650189
_cell_angle_alpha   96.55729206
_cell_angle_beta   101.87795522
_cell_angle_gamma   112.57033722
_symmetry_Int_Tables_number   1
_chemical_formula_structural   LiY2Cu3P2
_chemical_formula_sum   'Li1 Y2 Cu3 P2'
_cell_volume   78.24305142
_cell_formula_units_Z   1
loop_
 _symmetry_equiv_pos_site_id
 _symmetry_equiv_pos_as_xyz
  1  'x, y, z'
loop_
 _atom_site_type_symbol
 _atom_site_label
 _atom_site_symmetry_multiplicity
 _atom_site_fract_x
 _atom_site_fract_y
 _atom_site_fract_z
 _atom_site_occupancy
  Y  Y0  1  0.12500000  0.12500000  0.12500000  1
  Y  Y1  1  0.50000000  0.50000000  0.50000000  1
  P  P2  1  0.25000000  0.25000000  0.25000000  1
  P  P3  1  0.75000000  0.75000000  0.75000000  1
  Li  Li4  1  0.68094167  0.18448063  0.73397336  1
  Cu  Cu5  1  0.67698011  0.94131266  0.39504659  1
  Cu  Cu6  1  0.93417532  0.39816503  0.45192426  1
  Cu  Cu7  1  0.34173582  0.23642551  0.71202231  1
