# generated using pymatgen
data_LiF
_symmetry_space_group_name_H-M   'P 1'
_cell_length_a   8.60211047
_cell_length_b   8.60211047
_cell_length_c   29.17557335
_cell_angle_alpha   90.00000000
_cell_angle_beta   90.00000000
_cell_angle_gamma   90.00000000
_symmetry_Int_Tables_number   1
_chemical_formula_structural   LiF
_chemical_formula_sum   'Li64 F64'
_cell_volume   2158.88460903
_cell_formula_units_Z   64
loop_
 _symmetry_equiv_pos_site_id
 _symmetry_equiv_pos_as_xyz
  1  'x, y, z'
loop_
 _atom_site_type_symbol
 _atom_site_label
 _atom_site_symmetry_multiplicity
 _atom_site_fract_x
 _atom_site_fract_y
 _atom_site_fract_z
 _atom_site_occupancy
  F  F0  1  0.43327351  0.26421610  0.90142522  1
  F  F1  1  0.06672649  -0.26421610  1.40142522  1
  F  F2  1  -0.01421610  1.18327351  1.15142522  1
  F  F3  1  0.51421610  -0.18327351  1.65142522  1
  F  F4  1  0.06672649  0.26421610  -0.90142522  1
  F  F5  1  0.43327351  -0.26421610  -0.40142522  1
  F  F6  1  0.51421610  1.18327351  -0.15142522  1
  F  F7  1  -0.01421610  -0.18327351  -0.65142522  1
  F  F8  1  -0.43327351  -0.26421610  -0.90142522  1
  F  F9  1  0.93327351  0.26421610  -0.40142522  1
  F  F10  1  1.01421610  -0.18327351  -0.15142522  1
  F  F11  1  0.48578390  1.18327351  -0.65142522  1
  F  F12  1  0.93327351  -0.26421610  0.90142522  1
  F  F13  1  -0.43327351  0.26421610  1.40142522  1
  F  F14  1  0.48578390  -0.18327351  1.15142522  1
  F  F15  1  1.01421610  1.18327351  1.65142522  1
  F  F16  1  0.93327351  0.76421610  1.40142522  1
  F  F17  1  0.56672649  0.23578390  1.90142522  1
  F  F18  1  0.48578390  1.68327351  1.65142522  1
  F  F19  1  1.01421610  0.31672649  2.15142522  1
  F  F20  1  0.56672649  0.76421610  -0.40142522  1
  F  F21  1  0.93327351  0.23578390  0.09857478  1
  F  F22  1  1.01421610  1.68327351  0.34857478  1
  F  F23  1  0.48578390  0.31672649  -0.15142522  1
  F  F24  1  0.06672649  0.23578390  -0.40142522  1
  F  F25  1  1.43327351  0.76421610  0.09857478  1
  F  F26  1  1.51421610  0.31672649  0.34857478  1
  F  F27  1  0.98578390  1.68327351  -0.15142522  1
  F  F28  1  1.43327351  0.23578390  1.40142522  1
  F  F29  1  0.06672649  0.76421610  1.90142522  1
  F  F30  1  0.98578390  0.31672649  1.65142522  1
  F  F31  1  1.51421610  1.68327351  2.15142522  1
  F  F32  1  0.00000000  0.00000000  0.00000000  1
  F  F33  1  0.50000000  0.00000000  0.50000000  1
  F  F34  1  0.25000000  0.75000000  0.25000000  1
  F  F35  1  0.25000000  0.25000000  0.75000000  1
  F  F36  1  0.50000000  0.00000000  0.00000000  1
  F  F37  1  0.00000000  0.00000000  0.50000000  1
  F  F38  1  0.25000000  0.75000000  0.75000000  1
  F  F39  1  0.25000000  0.25000000  0.25000000  1
  F  F40  1  0.50000000  0.50000000  0.50000000  1
  F  F41  1  0.00000000  0.50000000  0.00000000  1
  F  F42  1  0.75000000  0.25000000  0.75000000  1
  F  F43  1  0.75000000  0.75000000  0.25000000  1
  F  F44  1  0.00000000  0.50000000  0.50000000  1
  F  F45  1  0.50000000  0.50000000  0.00000000  1
  F  F46  1  0.75000000  0.25000000  0.25000000  1
  F  F47  1  0.75000000  0.75000000  0.75000000  1
  F  F48  1  0.20271676  -0.00000000  0.25000000  1
  F  F49  1  0.29728324  -0.00000000  0.75000000  1
  F  F50  1  0.25000000  0.95271676  0.50000000  1
  F  F51  1  0.25000000  0.04728324  0.00000000  1
  F  F52  1  0.79728324  -0.00000000  0.75000000  1
  F  F53  1  0.70271676  -0.00000000  0.25000000  1
  F  F54  1  0.75000000  0.04728324  0.50000000  1
  F  F55  1  0.75000000  0.95271676  0.00000000  1
  F  F56  1  0.70271676  0.50000000  0.75000000  1
  F  F57  1  0.79728324  0.50000000  0.25000000  1
  F  F58  1  0.75000000  0.45271676  0.00000000  1
  F  F59  1  0.75000000  0.54728324  0.50000000  1
  F  F60  1  0.29728324  0.50000000  0.25000000  1
  F  F61  1  0.20271676  0.50000000  0.75000000  1
  F  F62  1  0.25000000  0.54728324  0.00000000  1
  F  F63  1  0.25000000  0.45271676  0.50000000  1
  Li  Li64  1  0.00000000  0.25000000  0.12500000  1
  Li  Li65  1  0.00000000  0.75000000  0.37500000  1
  Li  Li66  1  0.00000000  0.75000000  0.87500000  1
  Li  Li67  1  0.00000000  0.25000000  0.62500000  1
  Li  Li68  1  0.50000000  0.75000000  0.62500000  1
  Li  Li69  1  0.50000000  0.25000000  0.87500000  1
  Li  Li70  1  0.50000000  0.25000000  0.37500000  1
  Li  Li71  1  0.50000000  0.75000000  0.12500000  1
  Li  Li72  1  0.58107557  0.03203319  0.06109389  1
  Li  Li73  1  0.91892443  0.96796681  0.56109389  1
  Li  Li74  1  0.21796681  0.33107557  0.31109389  1
  Li  Li75  1  0.28203319  0.66892443  0.81109389  1
  Li  Li76  1  0.91892443  0.03203319  0.93890611  1
  Li  Li77  1  0.58107557  0.96796681  0.43890611  1
  Li  Li78  1  0.28203319  0.33107557  0.68890611  1
  Li  Li79  1  0.21796681  0.66892443  0.18890611  1
  Li  Li80  1  0.41892443  0.96796681  0.93890611  1
  Li  Li81  1  0.08107557  0.03203319  0.43890611  1
  Li  Li82  1  0.78203319  0.66892443  0.68890611  1
  Li  Li83  1  0.71796681  0.33107557  0.18890611  1
  Li  Li84  1  0.08107557  0.96796681  0.06109389  1
  Li  Li85  1  0.41892443  0.03203319  0.56109389  1
  Li  Li86  1  0.71796681  0.66892443  0.31109389  1
  Li  Li87  1  0.78203319  0.33107557  0.81109389  1
  Li  Li88  1  0.08107557  0.53203319  0.56109389  1
  Li  Li89  1  0.41892443  0.46796681  0.06109389  1
  Li  Li90  1  0.71796681  0.83107557  0.81109389  1
  Li  Li91  1  0.78203319  0.16892443  0.31109389  1
  Li  Li92  1  0.41892443  0.53203319  0.43890611  1
  Li  Li93  1  0.08107557  0.46796681  0.93890611  1
  Li  Li94  1  0.78203319  0.83107557  0.18890611  1
  Li  Li95  1  0.71796681  0.16892443  0.68890611  1
  Li  Li96  1  0.91892443  0.46796681  0.43890611  1
  Li  Li97  1  0.58107557  0.53203319  0.93890611  1
  Li  Li98  1  0.28203319  0.16892443  0.18890611  1
  Li  Li99  1  0.21796681  0.83107557  0.68890611  1
  Li  Li100  1  0.58107557  0.46796681  0.56109389  1
  Li  Li101  1  0.91892443  0.53203319  0.06109389  1
  Li  Li102  1  0.21796681  0.16892443  0.81109389  1
  Li  Li103  1  0.28203319  0.83107557  0.31109389  1
  Li  Li104  1  0.00000000  0.25000000  0.98166176  1
  Li  Li105  1  0.00000000  0.75000000  0.23166176  1
  Li  Li106  1  0.50000000  0.25000000  0.01833824  1
  Li  Li107  1  0.50000000  0.75000000  0.76833824  1
  Li  Li108  1  0.00000000  0.75000000  0.01833824  1
  Li  Li109  1  0.00000000  0.25000000  0.76833824  1
  Li  Li110  1  0.50000000  0.75000000  0.98166176  1
  Li  Li111  1  0.50000000  0.25000000  0.23166176  1
  Li  Li112  1  0.50000000  0.75000000  0.48166176  1
  Li  Li113  1  0.50000000  0.25000000  0.73166176  1
  Li  Li114  1  0.00000000  0.75000000  0.51833824  1
  Li  Li115  1  0.00000000  0.25000000  0.26833824  1
  Li  Li116  1  0.50000000  0.25000000  0.51833824  1
  Li  Li117  1  0.50000000  0.75000000  0.26833824  1
  Li  Li118  1  0.00000000  0.25000000  0.48166176  1
  Li  Li119  1  0.00000000  0.75000000  0.73166176  1
  Li  Li120  1  0.00000000  0.25000000  0.37500000  1
  Li  Li121  1  0.00000000  0.75000000  0.62500000  1
  Li  Li122  1  0.50000000  0.25000000  0.62500000  1
  Li  Li123  1  0.50000000  0.75000000  0.37500000  1
  Li  Li124  1  0.50000000  0.75000000  0.87500000  1
  Li  Li125  1  0.50000000  0.25000000  0.12500000  1
  Li  Li126  1  0.00000000  0.75000000  0.12500000  1
  Li  Li127  1  0.00000000  0.25000000  0.87500000  1
