# generated using pymatgen
data_LiF
_symmetry_space_group_name_H-M   'P 1'
_cell_length_a   11.35776700
_cell_length_b   11.35776700
_cell_length_c   8.48272306
_cell_angle_alpha   90.00000000
_cell_angle_beta   90.00000000
_cell_angle_gamma   120.00000000
_symmetry_Int_Tables_number   1
_chemical_formula_structural   LiF
_chemical_formula_sum   'Li36 F36'
_cell_volume   947.65842979
_cell_formula_units_Z   36
loop_
 _symmetry_equiv_pos_site_id
 _symmetry_equiv_pos_as_xyz
  1  'x, y, z'
loop_
 _atom_site_type_symbol
 _atom_site_label
 _atom_site_symmetry_multiplicity
 _atom_site_fract_x
 _atom_site_fract_y
 _atom_site_fract_z
 _atom_site_occupancy
  F  F0  1  0.28505118  0.00000000  0.25000000  1
  F  F1  1  0.00000000  0.28505118  0.25000000  1
  F  F2  1  -0.28505118  -0.28505118  0.25000000  1
  F  F3  1  -0.28505118  0.00000000  0.75000000  1
  F  F4  1  0.00000000  -0.28505118  0.75000000  1
  F  F5  1  0.28505118  0.28505118  0.75000000  1
  F  F6  1  0.95171785  0.33333333  0.58333333  1
  F  F7  1  0.66666667  0.61838452  0.58333333  1
  F  F8  1  0.38161548  0.04828215  0.58333333  1
  F  F9  1  0.38161548  0.33333333  1.08333333  1
  F  F10  1  0.66666667  0.04828215  1.08333333  1
  F  F11  1  0.95171785  0.61838452  1.08333333  1
  F  F12  1  0.61838452  0.66666667  0.91666667  1
  F  F13  1  0.33333333  0.95171785  0.91666667  1
  F  F14  1  0.04828215  0.38161548  0.91666667  1
  F  F15  1  0.04828215  0.66666667  1.41666667  1
  F  F16  1  0.33333333  0.38161548  1.41666667  1
  F  F17  1  0.61838452  0.95171785  1.41666667  1
  F  F18  1  0.00000000  0.00000000  0.25000000  1
  F  F19  1  0.00000000  0.00000000  0.75000000  1
  F  F20  1  0.66666667  0.33333333  0.58333333  1
  F  F21  1  0.66666667  0.33333333  0.08333333  1
  F  F22  1  0.33333333  0.66666667  0.91666667  1
  F  F23  1  0.33333333  0.66666667  0.41666667  1
  F  F24  1  0.00000000  0.00000000  0.45063033  1
  F  F25  1  0.00000000  0.00000000  0.04936967  1
  F  F26  1  0.00000000  0.00000000  0.54936967  1
  F  F27  1  0.00000000  0.00000000  0.95063033  1
  F  F28  1  0.66666667  0.33333333  0.78396366  1
  F  F29  1  0.66666667  0.33333333  0.38270300  1
  F  F30  1  0.66666667  0.33333333  0.88270300  1
  F  F31  1  0.66666667  0.33333333  0.28396366  1
  F  F32  1  0.33333333  0.66666667  0.11729700  1
  F  F33  1  0.33333333  0.66666667  0.71603634  1
  F  F34  1  0.33333333  0.66666667  0.21603634  1
  F  F35  1  0.33333333  0.66666667  0.61729700  1
  Li  Li36  1  0.71627528  0.00000000  0.25000000  1
  Li  Li37  1  0.00000000  0.71627528  0.25000000  1
  Li  Li38  1  0.28372472  0.28372472  0.25000000  1
  Li  Li39  1  0.28372472  0.00000000  0.75000000  1
  Li  Li40  1  0.00000000  0.28372472  0.75000000  1
  Li  Li41  1  0.71627528  0.71627528  0.75000000  1
  Li  Li42  1  0.38294194  0.33333333  0.58333333  1
  Li  Li43  1  0.66666667  0.04960861  0.58333333  1
  Li  Li44  1  0.95039139  0.61705806  0.58333333  1
  Li  Li45  1  0.95039139  0.33333333  0.08333333  1
  Li  Li46  1  0.66666667  0.61705806  0.08333333  1
  Li  Li47  1  0.38294194  0.04960861  0.08333333  1
  Li  Li48  1  0.04960861  0.66666667  0.91666667  1
  Li  Li49  1  0.33333333  0.38294194  0.91666667  1
  Li  Li50  1  0.61705806  0.95039139  0.91666667  1
  Li  Li51  1  0.61705806  0.66666667  0.41666667  1
  Li  Li52  1  0.33333333  0.95039139  0.41666667  1
  Li  Li53  1  0.04960861  0.38294194  0.41666667  1
  Li  Li54  1  0.50000000  0.00000000  -0.00000000  1
  Li  Li55  1  0.00000000  0.50000000  0.00000000  1
  Li  Li56  1  0.50000000  0.50000000  -0.00000000  1
  Li  Li57  1  0.00000000  0.50000000  0.50000000  1
  Li  Li58  1  0.50000000  0.00000000  0.50000000  1
  Li  Li59  1  0.50000000  0.50000000  0.50000000  1
  Li  Li60  1  0.16666667  0.33333333  0.33333333  1
  Li  Li61  1  0.66666667  0.83333333  0.33333333  1
  Li  Li62  1  0.16666667  0.83333333  0.33333333  1
  Li  Li63  1  0.66666667  0.83333333  0.83333333  1
  Li  Li64  1  0.16666667  0.33333333  0.83333333  1
  Li  Li65  1  0.16666667  0.83333333  0.83333333  1
  Li  Li66  1  0.83333333  0.66666667  0.66666667  1
  Li  Li67  1  0.33333333  0.16666667  0.66666667  1
  Li  Li68  1  0.83333333  0.16666667  0.66666667  1
  Li  Li69  1  0.33333333  0.16666667  0.16666667  1
  Li  Li70  1  0.83333333  0.66666667  0.16666667  1
  Li  Li71  1  0.83333333  0.16666667  0.16666667  1
