# generated using pymatgen
data_Li7Ca2Se2F7
_symmetry_space_group_name_H-M   'P 1'
_cell_length_a   9.92940675
_cell_length_b   9.92940675
_cell_length_c   7.22421705
_cell_angle_alpha   90.00000000
_cell_angle_beta   90.00000000
_cell_angle_gamma   120.00000000
_symmetry_Int_Tables_number   1
_chemical_formula_structural   Li7Ca2Se2F7
_chemical_formula_sum   'Li14 Ca4 Se4 F14'
_cell_volume   616.83359756
_cell_formula_units_Z   2
loop_
 _symmetry_equiv_pos_site_id
 _symmetry_equiv_pos_as_xyz
  1  'x, y, z'
loop_
 _atom_site_type_symbol
 _atom_site_label
 _atom_site_symmetry_multiplicity
 _atom_site_fract_x
 _atom_site_fract_y
 _atom_site_fract_z
 _atom_site_occupancy
  Ca  Ca0  1  0.00000000  0.00000000  0.00000000  1
  Ca  Ca1  1  0.84066868  0.15933132  0.00000000  1
  Ca  Ca2  1  0.84066868  0.68133737  0.00000000  1
  Ca  Ca3  1  0.31866263  0.15933132  0.00000000  1
  F  F4  1  0.92393410  0.60260263  0.65115674  1
  F  F5  1  -0.60260263  0.32133147  0.65115674  1
  F  F6  1  -0.32133147  -0.92393410  0.65115674  1
  F  F7  1  -0.60260263  -0.92393410  -0.65115674  1
  F  F8  1  -0.32133147  0.60260263  -0.65115674  1
  F  F9  1  0.92393410  0.32133147  -0.65115674  1
  F  F10  1  0.00000000  0.00000000  0.50000000  1
  F  F11  1  0.66666667  0.33333333  0.50000000  1
  F  F12  1  0.38311245  0.61688755  0.50000000  1
  F  F13  1  0.38311245  0.76622490  0.50000000  1
  F  F14  1  0.23377510  0.61688755  0.50000000  1
  F  F15  1  0.18289936  0.81710064  0.50000000  1
  F  F16  1  0.18289936  0.36579871  0.50000000  1
  F  F17  1  0.63420129  0.81710064  0.50000000  1
  Li  Li18  1  0.00000000  0.00000000  0.69138432  1
  Li  Li19  1  0.00000000  0.00000000  0.30861568  1
  Li  Li20  1  0.04203450  0.69787794  0.65444453  1
  Li  Li21  1  0.30212206  0.34415655  0.65444453  1
  Li  Li22  1  0.65584345  0.95796550  0.65444453  1
  Li  Li23  1  0.30212206  0.95796550  0.34555547  1
  Li  Li24  1  0.65584345  0.69787794  0.34555547  1
  Li  Li25  1  0.04203450  0.34415655  0.34555547  1
  Li  Li26  1  0.49636073  0.50363927  0.50000000  1
  Li  Li27  1  0.49636073  0.99272147  0.50000000  1
  Li  Li28  1  0.00727853  0.50363927  0.50000000  1
  Li  Li29  1  0.33333333  0.66666667  0.39492559  1
  Li  Li30  1  0.33333333  0.66666667  0.60507441  1
  Li  Li31  1  0.66666667  0.33333333  0.00000000  1
  Se  Se32  1  0.44954980  0.55045020  0.00000000  1
  Se  Se33  1  0.44954980  0.89909960  0.00000000  1
  Se  Se34  1  0.10090040  0.55045020  0.00000000  1
  Se  Se35  1  0.33333333  0.66666667  -0.00000000  1
