# generated using pymatgen
data_LiF
_symmetry_space_group_name_H-M   'P 1'
_cell_length_a   6.55143760
_cell_length_b   6.99767252
_cell_length_c   6.82749199
_cell_angle_alpha   90.00000000
_cell_angle_beta   90.00000000
_cell_angle_gamma   90.00000000
_symmetry_Int_Tables_number   1
_chemical_formula_structural   LiF
_chemical_formula_sum   'Li28 F28'
_cell_volume   313.00510622
_cell_formula_units_Z   28
loop_
 _symmetry_equiv_pos_site_id
 _symmetry_equiv_pos_as_xyz
  1  'x, y, z'
loop_
 _atom_site_type_symbol
 _atom_site_label
 _atom_site_symmetry_multiplicity
 _atom_site_fract_x
 _atom_site_fract_y
 _atom_site_fract_z
 _atom_site_occupancy
  F  F0  1  0.26539122  0.93587260  0.39380269  1
  F  F1  1  0.73460878  0.06412740  0.39380269  1
  F  F2  1  0.23460878  0.43587260  0.60619731  1
  F  F3  1  0.76539122  0.56412740  0.60619731  1
  F  F4  1  0.73460878  0.06412740  0.60619731  1
  F  F5  1  0.26539122  0.93587260  0.60619731  1
  F  F6  1  0.76539122  0.56412740  0.39380269  1
  F  F7  1  0.23460878  0.43587260  0.39380269  1
  F  F8  1  0.12138456  0.40141685  0.50000000  1
  F  F9  1  0.87861544  0.59858315  0.50000000  1
  F  F10  1  0.37861544  0.90141685  0.50000000  1
  F  F11  1  0.62138456  0.09858315  0.50000000  1
  F  F12  1  0.95591366  0.95284619  0.65891639  1
  F  F13  1  0.04408634  0.04715381  0.65891639  1
  F  F14  1  0.54408634  0.45284619  0.34108361  1
  F  F15  1  0.45591366  0.54715381  0.34108361  1
  F  F16  1  0.04408634  0.04715381  0.34108361  1
  F  F17  1  0.95591366  0.95284619  0.34108361  1
  F  F18  1  0.45591366  0.54715381  0.65891639  1
  F  F19  1  0.54408634  0.45284619  0.65891639  1
  F  F20  1  0.25179853  0.43902326  0.86093811  1
  F  F21  1  0.74820147  0.56097674  0.86093811  1
  F  F22  1  0.24820147  0.93902326  0.13906189  1
  F  F23  1  0.75179853  0.06097674  0.13906189  1
  F  F24  1  0.74820147  0.56097674  0.13906189  1
  F  F25  1  0.25179853  0.43902326  0.13906189  1
  F  F26  1  0.75179853  0.06097674  0.86093811  1
  F  F27  1  0.24820147  0.93902326  0.86093811  1
  Li  Li28  1  0.00000000  0.50000000  0.20077694  1
  Li  Li29  1  0.50000000  0.00000000  0.79922306  1
  Li  Li30  1  0.00000000  0.50000000  0.79922306  1
  Li  Li31  1  0.50000000  0.00000000  0.20077694  1
  Li  Li32  1  0.63373927  0.65712201  0.25372377  1
  Li  Li33  1  -0.63373927  -0.65712201  0.25372377  1
  Li  Li34  1  -0.13373927  1.15712201  -0.25372377  1
  Li  Li35  1  1.13373927  -0.15712201  -0.25372377  1
  Li  Li36  1  -0.63373927  -0.65712201  -0.25372377  1
  Li  Li37  1  0.63373927  0.65712201  -0.25372377  1
  Li  Li38  1  1.13373927  -0.15712201  0.25372377  1
  Li  Li39  1  -0.13373927  1.15712201  0.25372377  1
  Li  Li40  1  0.32628698  0.63162872  0.00000000  1
  Li  Li41  1  0.67371302  0.36837128  -0.00000000  1
  Li  Li42  1  0.17371302  0.13162872  0.00000000  1
  Li  Li43  1  0.82628698  0.86837128  0.00000000  1
  Li  Li44  1  0.09963707  0.83650873  0.50000000  1
  Li  Li45  1  0.90036293  0.16349127  0.50000000  1
  Li  Li46  1  0.40036293  0.33650873  0.50000000  1
  Li  Li47  1  0.59963707  0.66349127  0.50000000  1
  Li  Li48  1  0.00000000  0.00000000  0.00000000  1
  Li  Li49  1  0.50000000  0.50000000  0.00000000  1
  Li  Li50  1  0.00000000  0.50000000  0.00000000  1
  Li  Li51  1  0.50000000  0.00000000  0.00000000  1
  Li  Li52  1  0.59118779  0.76395001  -0.00000000  1
  Li  Li53  1  0.40881221  0.23604999  -0.00000000  1
  Li  Li54  1  0.90881221  0.26395001  -0.00000000  1
  Li  Li55  1  0.09118779  0.73604999  -0.00000000  1
