# generated using pymatgen
data_LiF
_symmetry_space_group_name_H-M   'P 1'
_cell_length_a   12.64582305
_cell_length_b   12.64582305
_cell_length_c   11.02303393
_cell_angle_alpha   90.00000000
_cell_angle_beta   90.00000000
_cell_angle_gamma   120.00000000
_symmetry_Int_Tables_number   1
_chemical_formula_structural   LiF
_chemical_formula_sum   'Li42 F42'
_cell_volume   1526.60252668
_cell_formula_units_Z   42
loop_
 _symmetry_equiv_pos_site_id
 _symmetry_equiv_pos_as_xyz
  1  'x, y, z'
loop_
 _atom_site_type_symbol
 _atom_site_label
 _atom_site_symmetry_multiplicity
 _atom_site_fract_x
 _atom_site_fract_y
 _atom_site_fract_z
 _atom_site_occupancy
  F  F0  1  0.00000000  0.00000000  0.25000000  1
  F  F1  1  0.00000000  0.00000000  0.75000000  1
  F  F2  1  0.26286029  0.35765623  0.62190600  1
  F  F3  1  0.64234377  0.90520406  0.62190600  1
  F  F4  1  0.09479594  0.73713971  0.62190600  1
  F  F5  1  0.73713971  0.64234377  0.12190600  1
  F  F6  1  0.35765623  0.09479594  0.12190600  1
  F  F7  1  0.90520406  0.26286029  0.12190600  1
  F  F8  1  0.73713971  0.64234377  0.37809400  1
  F  F9  1  0.35765623  0.09479594  0.37809400  1
  F  F10  1  0.90520406  0.26286029  0.37809400  1
  F  F11  1  0.26286029  0.35765623  0.87809400  1
  F  F12  1  0.64234377  0.90520406  0.87809400  1
  F  F13  1  0.09479594  0.73713971  0.87809400  1
  F  F14  1  0.50000000  -0.00000000  0.00000000  1
  F  F15  1  0.00000000  0.50000000  0.00000000  1
  F  F16  1  0.50000000  0.50000000  0.00000000  1
  F  F17  1  0.50000000  -0.00000000  0.50000000  1
  F  F18  1  0.00000000  0.50000000  0.50000000  1
  F  F19  1  0.50000000  0.50000000  0.50000000  1
  F  F20  1  0.97795803  0.25532199  0.25000000  1
  F  F21  1  0.74467801  0.72263604  0.25000000  1
  F  F22  1  0.27736396  0.02204197  0.25000000  1
  F  F23  1  0.02204197  0.74467801  0.75000000  1
  F  F24  1  0.25532199  0.27736396  0.75000000  1
  F  F25  1  0.72263604  0.97795803  0.75000000  1
  F  F26  1  0.97954179  0.41455468  0.20565401  1
  F  F27  1  0.58544532  0.56498711  0.20565401  1
  F  F28  1  0.43501289  0.02045821  0.20565401  1
  F  F29  1  0.02045821  0.58544532  0.70565401  1
  F  F30  1  0.41455468  0.43501289  0.70565401  1
  F  F31  1  0.56498711  0.97954179  0.70565401  1
  F  F32  1  0.02045821  0.58544532  0.79434599  1
  F  F33  1  0.41455468  0.43501289  0.79434599  1
  F  F34  1  0.56498711  0.97954179  0.79434599  1
  F  F35  1  0.97954179  0.41455468  0.29434599  1
  F  F36  1  0.58544532  0.56498711  0.29434599  1
  F  F37  1  0.43501289  0.02045821  0.29434599  1
  F  F38  1  0.33333333  0.66666667  0.25000000  1
  F  F39  1  0.66666667  0.33333333  0.75000000  1
  F  F40  1  0.00000000  0.00000000  0.00000000  1
  F  F41  1  0.00000000  0.00000000  0.50000000  1
  Li  Li42  1  0.18932175  0.41357714  0.32733599  1
  Li  Li43  1  -0.41357714  -0.22425539  0.32733599  1
  Li  Li44  1  0.22425539  -0.18932175  0.32733599  1
  Li  Li45  1  -0.18932175  -0.41357714  0.82733599  1
  Li  Li46  1  0.41357714  0.22425539  0.82733599  1
  Li  Li47  1  -0.22425539  0.18932175  0.82733599  1
  Li  Li48  1  -0.18932175  -0.41357714  -0.32733599  1
  Li  Li49  1  0.41357714  0.22425539  -0.32733599  1
  Li  Li50  1  -0.22425539  0.18932175  -0.32733599  1
  Li  Li51  1  0.18932175  0.41357714  0.17266401  1
  Li  Li52  1  -0.41357714  -0.22425539  0.17266401  1
  Li  Li53  1  0.22425539  -0.18932175  0.17266401  1
  Li  Li54  1  0.48084831  0.88109169  0.58271395  1
  Li  Li55  1  0.11890831  0.59975662  0.58271395  1
  Li  Li56  1  0.40024338  0.51915169  0.58271395  1
  Li  Li57  1  0.51915169  0.11890831  0.08271395  1
  Li  Li58  1  0.88109169  0.40024338  0.08271395  1
  Li  Li59  1  0.59975662  0.48084831  0.08271395  1
  Li  Li60  1  0.51915169  0.11890831  0.41728605  1
  Li  Li61  1  0.88109169  0.40024338  0.41728605  1
  Li  Li62  1  0.59975662  0.48084831  0.41728605  1
  Li  Li63  1  0.48084831  0.88109169  0.91728605  1
  Li  Li64  1  0.11890831  0.59975662  0.91728605  1
  Li  Li65  1  0.40024338  0.51915169  0.91728605  1
  Li  Li66  1  0.46022800  0.08079749  0.88110047  1
  Li  Li67  1  0.91920251  0.37943051  0.88110047  1
  Li  Li68  1  0.62056949  0.53977200  0.88110047  1
  Li  Li69  1  0.53977200  0.91920251  0.38110047  1
  Li  Li70  1  0.08079749  0.62056949  0.38110047  1
  Li  Li71  1  0.37943051  0.46022800  0.38110047  1
  Li  Li72  1  0.53977200  0.91920251  0.11889953  1
  Li  Li73  1  0.08079749  0.62056949  0.11889953  1
  Li  Li74  1  0.37943051  0.46022800  0.11889953  1
  Li  Li75  1  0.46022800  0.08079749  0.61889953  1
  Li  Li76  1  0.91920251  0.37943051  0.61889953  1
  Li  Li77  1  0.62056949  0.53977200  0.61889953  1
  Li  Li78  1  0.40329292  0.14518929  0.25000000  1
  Li  Li79  1  0.85481071  0.25810364  0.25000000  1
  Li  Li80  1  0.74189636  0.59670708  0.25000000  1
  Li  Li81  1  0.59670708  0.85481071  0.75000000  1
  Li  Li82  1  0.14518929  0.74189636  0.75000000  1
  Li  Li83  1  0.25810364  0.40329292  0.75000000  1
