# generated using pymatgen
data_LiF
_symmetry_space_group_name_H-M   'P 1'
_cell_length_a   5.86687235
_cell_length_b   7.13025745
_cell_length_c   4.72881653
_cell_angle_alpha   90.00000000
_cell_angle_beta   90.00000000
_cell_angle_gamma   90.00000000
_symmetry_Int_Tables_number   1
_chemical_formula_structural   LiF
_chemical_formula_sum   'Li14 F14'
_cell_volume   197.81732028
_cell_formula_units_Z   14
loop_
 _symmetry_equiv_pos_site_id
 _symmetry_equiv_pos_as_xyz
  1  'x, y, z'
loop_
 _atom_site_type_symbol
 _atom_site_label
 _atom_site_symmetry_multiplicity
 _atom_site_fract_x
 _atom_site_fract_y
 _atom_site_fract_z
 _atom_site_occupancy
  F  F0  1  0.00000000  0.50000000  0.31395083  1
  F  F1  1  0.50000000  0.00000000  0.18604917  1
  F  F2  1  0.00000000  0.50000000  0.68604917  1
  F  F3  1  0.50000000  0.00000000  0.81395083  1
  F  F4  1  0.19904958  0.53873312  0.88957302  1
  F  F5  1  -0.19904958  -0.53873312  0.88957302  1
  F  F6  1  0.30095042  1.03873312  -0.38957302  1
  F  F7  1  0.69904958  -0.03873312  -0.38957302  1
  F  F8  1  -0.19904958  -0.53873312  -0.88957302  1
  F  F9  1  0.19904958  0.53873312  -0.88957302  1
  F  F10  1  0.69904958  -0.03873312  1.38957302  1
  F  F11  1  0.30095042  1.03873312  1.38957302  1
  F  F12  1  0.00000000  0.00000000  0.50000000  1
  F  F13  1  0.50000000  0.50000000  -0.00000000  1
  Li  Li14  1  0.40299306  0.12268904  -0.00000000  1
  Li  Li15  1  0.59700694  0.87731096  0.00000000  1
  Li  Li16  1  0.09700694  0.62268904  0.50000000  1
  Li  Li17  1  0.90299306  0.37731096  0.50000000  1
  Li  Li18  1  0.23022619  0.82429456  -0.00000000  1
  Li  Li19  1  0.76977381  0.17570544  0.00000000  1
  Li  Li20  1  0.26977381  0.32429456  0.50000000  1
  Li  Li21  1  0.73022619  0.67570544  0.50000000  1
  Li  Li22  1  0.00000000  0.00000000  0.14784138  1
  Li  Li23  1  0.50000000  0.50000000  0.35215862  1
  Li  Li24  1  0.00000000  0.00000000  0.85215862  1
  Li  Li25  1  0.50000000  0.50000000  0.64784138  1
  Li  Li26  1  0.00000000  0.50000000  0.00000000  1
  Li  Li27  1  0.50000000  0.00000000  0.50000000  1
