# generated using pymatgen
data_LiY2Sb2As4P
_symmetry_space_group_name_H-M   'P 1'
_cell_length_a   4.99301775
_cell_length_b   5.02643328
_cell_length_c   6.03182153
_cell_angle_alpha   93.87338158
_cell_angle_beta   94.99288065
_cell_angle_gamma   100.15902185
_symmetry_Int_Tables_number   1
_chemical_formula_structural   LiY2Sb2As4P
_chemical_formula_sum   'Li1 Y2 Sb2 As4 P1'
_cell_volume   147.91083466
_cell_formula_units_Z   1
loop_
 _symmetry_equiv_pos_site_id
 _symmetry_equiv_pos_as_xyz
  1  'x, y, z'
loop_
 _atom_site_type_symbol
 _atom_site_label
 _atom_site_symmetry_multiplicity
 _atom_site_fract_x
 _atom_site_fract_y
 _atom_site_fract_z
 _atom_site_occupancy
  Y  Y0  1  0.12500000  0.00000000  0.25000000  1
  Y  Y1  1  0.00000000  0.00000000  0.00000000  1
  P  P2  1  0.37500000  0.00000000  0.25000000  1
  As  As3  1  0.25000000  0.25000000  0.25000000  1
  As  As4  1  0.00000000  0.25000000  0.12500000  1
  As  As5  1  0.30361265  0.85708276  0.42949356  1
  As  As6  1  0.51349323  0.83009630  0.34983869  1
  Li  Li7  1  0.00297471  0.80269639  0.19191338  1
  Sb  Sb8  1  0.79194536  0.15833324  0.46548923  1
  Sb  Sb9  1  0.27293958  0.24225306  0.51476645  1
