# generated using pymatgen
data_LiF
_symmetry_space_group_name_H-M   'P 1'
_cell_length_a   8.04104872
_cell_length_b   8.04104872
_cell_length_c   16.06951321
_cell_angle_alpha   90.00000000
_cell_angle_beta   90.00000000
_cell_angle_gamma   90.00000000
_symmetry_Int_Tables_number   1
_chemical_formula_structural   LiF
_chemical_formula_sum   'Li32 F32'
_cell_volume   1039.03005080
_cell_formula_units_Z   32
loop_
 _symmetry_equiv_pos_site_id
 _symmetry_equiv_pos_as_xyz
  1  'x, y, z'
loop_
 _atom_site_type_symbol
 _atom_site_label
 _atom_site_symmetry_multiplicity
 _atom_site_fract_x
 _atom_site_fract_y
 _atom_site_fract_z
 _atom_site_occupancy
  F  F0  1  0.49452149  0.00000000  0.25000000  1
  F  F1  1  0.00547851  0.00000000  0.75000000  1
  F  F2  1  0.25000000  0.24452149  0.50000000  1
  F  F3  1  0.25000000  0.75547851  0.00000000  1
  F  F4  1  0.50547851  0.00000000  0.75000000  1
  F  F5  1  0.99452149  0.00000000  0.25000000  1
  F  F6  1  0.75000000  0.75547851  0.50000000  1
  F  F7  1  0.75000000  0.24452149  -0.00000000  1
  F  F8  1  0.99452149  0.50000000  0.75000000  1
  F  F9  1  0.50547851  0.50000000  0.25000000  1
  F  F10  1  0.75000000  0.74452149  0.00000000  1
  F  F11  1  0.75000000  0.25547851  0.50000000  1
  F  F12  1  0.00547851  0.50000000  0.25000000  1
  F  F13  1  0.49452149  0.50000000  0.75000000  1
  F  F14  1  0.25000000  0.25547851  -0.00000000  1
  F  F15  1  0.25000000  0.74452149  0.50000000  1
  F  F16  1  0.44009645  0.69009645  0.12500000  1
  F  F17  1  0.05990355  0.30990355  0.62500000  1
  F  F18  1  0.55990355  0.19009645  0.37500000  1
  F  F19  1  0.94009645  0.80990355  0.87500000  1
  F  F20  1  0.55990355  0.30990355  0.87500000  1
  F  F21  1  0.94009645  0.69009645  0.37500000  1
  F  F22  1  0.44009645  0.80990355  0.62500000  1
  F  F23  1  0.05990355  0.19009645  0.12500000  1
  F  F24  1  0.94009645  0.19009645  0.62500000  1
  F  F25  1  0.55990355  0.80990355  0.12500000  1
  F  F26  1  0.05990355  0.69009645  0.87500000  1
  F  F27  1  0.44009645  0.30990355  0.37500000  1
  F  F28  1  0.05990355  0.80990355  0.37500000  1
  F  F29  1  0.44009645  0.19009645  0.87500000  1
  F  F30  1  0.94009645  0.30990355  0.12500000  1
  F  F31  1  0.55990355  0.69009645  0.62500000  1
  Li  Li32  1  0.51053601  0.13383223  0.69190022  1
  Li  Li33  1  -0.01053601  -0.13383223  1.19190022  1
  Li  Li34  1  0.11616777  1.26053601  0.94190022  1
  Li  Li35  1  0.38383223  -0.26053601  1.44190022  1
  Li  Li36  1  -0.01053601  0.13383223  -0.69190022  1
  Li  Li37  1  0.51053601  -0.13383223  -0.19190022  1
  Li  Li38  1  0.38383223  1.26053601  0.05809978  1
  Li  Li39  1  0.11616777  -0.26053601  -0.44190022  1
  Li  Li40  1  -0.51053601  -0.13383223  -0.69190022  1
  Li  Li41  1  1.01053601  0.13383223  -0.19190022  1
  Li  Li42  1  0.88383223  -0.26053601  0.05809978  1
  Li  Li43  1  0.61616777  1.26053601  -0.44190022  1
  Li  Li44  1  1.01053601  -0.13383223  0.69190022  1
  Li  Li45  1  -0.51053601  0.13383223  1.19190022  1
  Li  Li46  1  0.61616777  -0.26053601  0.94190022  1
  Li  Li47  1  0.88383223  1.26053601  1.44190022  1
  Li  Li48  1  1.01053601  0.63383223  1.19190022  1
  Li  Li49  1  0.48946399  0.36616777  1.69190022  1
  Li  Li50  1  0.61616777  1.76053601  1.44190022  1
  Li  Li51  1  0.88383223  0.23946399  1.94190022  1
  Li  Li52  1  0.48946399  0.63383223  -0.19190022  1
  Li  Li53  1  1.01053601  0.36616777  0.30809978  1
  Li  Li54  1  0.88383223  1.76053601  0.55809978  1
  Li  Li55  1  0.61616777  0.23946399  0.05809978  1
  Li  Li56  1  -0.01053601  0.36616777  -0.19190022  1
  Li  Li57  1  1.51053601  0.63383223  0.30809978  1
  Li  Li58  1  1.38383223  0.23946399  0.55809978  1
  Li  Li59  1  1.11616777  1.76053601  0.05809978  1
  Li  Li60  1  1.51053601  0.36616777  1.19190022  1
  Li  Li61  1  -0.01053601  0.63383223  1.69190022  1
  Li  Li62  1  1.11616777  0.23946399  1.44190022  1
  Li  Li63  1  1.38383223  1.76053601  1.94190022  1
