# generated using pymatgen
data_LiCaF3
_symmetry_space_group_name_H-M   'P 1'
_cell_length_a   11.77794153
_cell_length_b   11.77794153
_cell_length_c   14.74698207
_cell_angle_alpha   90.00000000
_cell_angle_beta   90.00000000
_cell_angle_gamma   120.00000000
_symmetry_Int_Tables_number   1
_chemical_formula_structural   LiCaF3
_chemical_formula_sum   'Li18 Ca18 F54'
_cell_volume   1771.62814805
_cell_formula_units_Z   18
loop_
 _symmetry_equiv_pos_site_id
 _symmetry_equiv_pos_as_xyz
  1  'x, y, z'
loop_
 _atom_site_type_symbol
 _atom_site_label
 _atom_site_symmetry_multiplicity
 _atom_site_fract_x
 _atom_site_fract_y
 _atom_site_fract_z
 _atom_site_occupancy
  Ca  Ca0  1  0.50000000  0.00000000  -0.00000000  1
  Ca  Ca1  1  0.00000000  0.50000000  0.00000000  1
  Ca  Ca2  1  0.50000000  0.50000000  -0.00000000  1
  Ca  Ca3  1  0.00000000  0.50000000  0.50000000  1
  Ca  Ca4  1  0.50000000  0.00000000  0.50000000  1
  Ca  Ca5  1  0.50000000  0.50000000  0.50000000  1
  Ca  Ca6  1  0.16666667  0.33333333  0.33333333  1
  Ca  Ca7  1  0.66666667  0.83333333  0.33333333  1
  Ca  Ca8  1  0.16666667  0.83333333  0.33333333  1
  Ca  Ca9  1  0.66666667  0.83333333  0.83333333  1
  Ca  Ca10  1  0.16666667  0.33333333  0.83333333  1
  Ca  Ca11  1  0.16666667  0.83333333  0.83333333  1
  Ca  Ca12  1  0.83333333  0.66666667  0.66666667  1
  Ca  Ca13  1  0.33333333  0.16666667  0.66666667  1
  Ca  Ca14  1  0.83333333  0.16666667  0.66666667  1
  Ca  Ca15  1  0.33333333  0.16666667  0.16666667  1
  Ca  Ca16  1  0.83333333  0.66666667  0.16666667  1
  Ca  Ca17  1  0.83333333  0.16666667  0.16666667  1
  F  F18  1  0.00000000  0.00000000  0.00000000  1
  F  F19  1  0.00000000  0.00000000  0.50000000  1
  F  F20  1  0.66666667  0.33333333  0.33333333  1
  F  F21  1  0.66666667  0.33333333  0.83333333  1
  F  F22  1  0.33333333  0.66666667  0.66666667  1
  F  F23  1  0.33333333  0.66666667  0.16666667  1
  F  F24  1  0.14962226  0.71969805  0.00898186  1
  F  F25  1  -0.71969805  -0.57007579  0.00898186  1
  F  F26  1  0.57007579  -0.14962226  0.00898186  1
  F  F27  1  0.71969805  0.14962226  0.49101814  1
  F  F28  1  -0.57007579  -0.71969805  0.49101814  1
  F  F29  1  -0.14962226  0.57007579  0.49101814  1
  F  F30  1  -0.14962226  -0.71969805  -0.00898186  1
  F  F31  1  0.71969805  0.57007579  -0.00898186  1
  F  F32  1  -0.57007579  0.14962226  -0.00898186  1
  F  F33  1  -0.71969805  -0.14962226  0.50898186  1
  F  F34  1  0.57007579  0.71969805  0.50898186  1
  F  F35  1  0.14962226  -0.57007579  0.50898186  1
  F  F36  1  0.81628892  1.05303138  0.34231519  1
  F  F37  1  -0.05303138  -0.23674246  0.34231519  1
  F  F38  1  1.23674246  0.18371108  0.34231519  1
  F  F39  1  1.38636472  0.48295559  0.82435147  1
  F  F40  1  0.09659088  -0.38636472  0.82435147  1
  F  F41  1  0.51704441  0.90340912  0.82435147  1
  F  F42  1  0.51704441  -0.38636472  0.32435147  1
  F  F43  1  1.38636472  0.90340912  0.32435147  1
  F  F44  1  0.09659088  0.48295559  0.32435147  1
  F  F45  1  -0.05303138  0.18371108  0.84231519  1
  F  F46  1  1.23674246  1.05303138  0.84231519  1
  F  F47  1  0.81628892  -0.23674246  0.84231519  1
  F  F48  1  0.48295559  1.38636472  0.67564853  1
  F  F49  1  -0.38636472  0.09659088  0.67564853  1
  F  F50  1  0.90340912  0.51704441  0.67564853  1
  F  F51  1  1.05303138  0.81628892  1.15768481  1
  F  F52  1  -0.23674246  -0.05303138  1.15768481  1
  F  F53  1  0.18371108  1.23674246  1.15768481  1
  F  F54  1  0.18371108  -0.05303138  0.65768481  1
  F  F55  1  1.05303138  1.23674246  0.65768481  1
  F  F56  1  -0.23674246  0.81628892  0.65768481  1
  F  F57  1  -0.38636472  0.51704441  1.17564853  1
  F  F58  1  0.90340912  1.38636472  1.17564853  1
  F  F59  1  0.48295559  0.09659088  1.17564853  1
  F  F60  1  0.00000000  0.00000000  0.77271686  1
  F  F61  1  0.00000000  0.00000000  0.72728314  1
  F  F62  1  0.00000000  0.00000000  0.22728314  1
  F  F63  1  0.00000000  0.00000000  0.27271686  1
  F  F64  1  0.66666667  0.33333333  0.10605019  1
  F  F65  1  0.66666667  0.33333333  0.06061647  1
  F  F66  1  0.66666667  0.33333333  0.56061647  1
  F  F67  1  0.66666667  0.33333333  0.60605019  1
  F  F68  1  0.33333333  0.66666667  0.43938353  1
  F  F69  1  0.33333333  0.66666667  0.39394981  1
  F  F70  1  0.33333333  0.66666667  0.89394981  1
  F  F71  1  0.33333333  0.66666667  0.93938353  1
  Li  Li72  1  0.67959336  0.00000000  0.25000000  1
  Li  Li73  1  0.00000000  0.67959336  0.25000000  1
  Li  Li74  1  0.32040664  0.32040664  0.25000000  1
  Li  Li75  1  0.32040664  0.00000000  0.75000000  1
  Li  Li76  1  0.00000000  0.32040664  0.75000000  1
  Li  Li77  1  0.67959336  0.67959336  0.75000000  1
  Li  Li78  1  0.34626003  0.33333333  0.58333333  1
  Li  Li79  1  0.66666667  0.01292670  0.58333333  1
  Li  Li80  1  0.98707330  0.65373997  0.58333333  1
  Li  Li81  1  0.98707330  0.33333333  0.08333333  1
  Li  Li82  1  0.66666667  0.65373997  0.08333333  1
  Li  Li83  1  0.34626003  0.01292670  0.08333333  1
  Li  Li84  1  0.01292670  0.66666667  0.91666667  1
  Li  Li85  1  0.33333333  0.34626003  0.91666667  1
  Li  Li86  1  0.65373997  0.98707330  0.91666667  1
  Li  Li87  1  0.65373997  0.66666667  0.41666667  1
  Li  Li88  1  0.33333333  0.98707330  0.41666667  1
  Li  Li89  1  0.01292670  0.34626003  0.41666667  1
