# generated using pymatgen
data_Li2YAs2P3Se
_symmetry_space_group_name_H-M   'P 1'
_cell_length_a   4.77397130
_cell_length_b   4.91572235
_cell_length_c   6.94685892
_cell_angle_alpha   95.53491639
_cell_angle_beta   101.43036659
_cell_angle_gamma   110.24217606
_symmetry_Int_Tables_number   1
_chemical_formula_structural   Li2YAs2P3Se
_chemical_formula_sum   'Li2 Y1 As2 P3 Se1'
_cell_volume   147.48969938
_cell_formula_units_Z   1
loop_
 _symmetry_equiv_pos_site_id
 _symmetry_equiv_pos_as_xyz
  1  'x, y, z'
loop_
 _atom_site_type_symbol
 _atom_site_label
 _atom_site_symmetry_multiplicity
 _atom_site_fract_x
 _atom_site_fract_y
 _atom_site_fract_z
 _atom_site_occupancy
  Y  Y0  1  0.12500000  0.00000000  0.25000000  1
  P  P1  1  0.00000000  0.00000000  0.00000000  1
  P  P2  1  0.37500000  0.00000000  0.25000000  1
  P  P3  1  0.25000000  0.25000000  0.25000000  1
  Se  Se4  1  0.00000000  0.25000000  0.12500000  1
  As  As5  1  0.61739316  0.48799607  0.76024939  1
  As  As6  1  0.47393943  0.80144030  0.61339579  1
  Li  Li7  1  0.99921753  0.52771898  0.76762816  1
  Li  Li8  1  0.70749822  0.63412566  0.67611182  1
