# generated using pymatgen
data_LiY2Cu3(As2P)2
_symmetry_space_group_name_H-M   'P 1'
_cell_length_a   4.38895358
_cell_length_b   4.51758756
_cell_length_c   6.65860596
_cell_angle_alpha   95.70670069
_cell_angle_beta   102.04137578
_cell_angle_gamma   112.31520741
_symmetry_Int_Tables_number   1
_chemical_formula_structural   LiY2Cu3(As2P)2
_chemical_formula_sum   'Li1 Y2 Cu3 As4 P2'
_cell_volume   117.09696309
_cell_formula_units_Z   1
loop_
 _symmetry_equiv_pos_site_id
 _symmetry_equiv_pos_as_xyz
  1  'x, y, z'
loop_
 _atom_site_type_symbol
 _atom_site_label
 _atom_site_symmetry_multiplicity
 _atom_site_fract_x
 _atom_site_fract_y
 _atom_site_fract_z
 _atom_site_occupancy
  Cu  Cu0  1  0.12500000  0.00000000  0.25000000  1
  Cu  Cu1  1  0.00000000  0.00000000  0.00000000  1
  Cu  Cu2  1  0.37500000  0.00000000  0.25000000  1
  P  P3  1  0.25000000  0.25000000  0.25000000  1
  P  P4  1  0.00000000  0.25000000  0.12500000  1
  As  As5  1  0.58140983  0.05134849  0.74458495  1
  As  As6  1  0.07818942  0.78216230  0.13894744  1
  As  As7  1  0.68966207  0.21253664  0.79999676  1
  As  As8  1  0.86405071  0.08797481  0.75242382  1
  Li  Li9  1  0.17724638  0.41935751  0.57168250  1
  Y  Y10  1  0.58859528  0.95164279  0.06445139  1
  Y  Y11  1  0.90565416  0.89061066  0.95863498  1
