# generated using pymatgen
data_Li2Y2AsP4
_symmetry_space_group_name_H-M   'P 1'
_cell_length_a   3.52700783
_cell_length_b   3.85559584
_cell_length_c   6.41013326
_cell_angle_alpha   97.34742155
_cell_angle_beta   104.99312583
_cell_angle_gamma   114.61296915
_symmetry_Int_Tables_number   1
_chemical_formula_structural   Li2Y2AsP4
_chemical_formula_sum   'Li2 Y2 As1 P4'
_cell_volume   73.74456763
_cell_formula_units_Z   1
loop_
 _symmetry_equiv_pos_site_id
 _symmetry_equiv_pos_as_xyz
  1  'x, y, z'
loop_
 _atom_site_type_symbol
 _atom_site_label
 _atom_site_symmetry_multiplicity
 _atom_site_fract_x
 _atom_site_fract_y
 _atom_site_fract_z
 _atom_site_occupancy
  P  P0  1  0.12500000  0.12500000  0.12500000  1
  P  P1  1  0.50000000  0.50000000  0.50000000  1
  P  P2  1  0.25000000  0.25000000  0.25000000  1
  P  P3  1  0.75000000  0.75000000  0.75000000  1
  Li  Li4  1  0.35668672  0.96706487  0.91368109  1
  Li  Li5  1  0.69270431  0.54848808  0.15258782  1
  Y  Y6  1  0.47858314  0.47734621  0.55153887  1
  Y  Y7  1  0.03587746  0.18069631  0.07108304  1
  As  As8  1  0.70300795  0.06614541  0.19751481  1
