# generated using pymatgen
data_Li2Mo2As4P2Se
_symmetry_space_group_name_H-M   'P 1'
_cell_length_a   4.95183038
_cell_length_b   5.19184207
_cell_length_c   6.41392596
_cell_angle_alpha   92.95342100
_cell_angle_beta   96.77042150
_cell_angle_gamma   102.05011045
_symmetry_Int_Tables_number   1
_chemical_formula_structural   Li2Mo2As4P2Se
_chemical_formula_sum   'Li2 Mo2 As4 P2 Se1'
_cell_volume   159.64552068
_cell_formula_units_Z   1
loop_
 _symmetry_equiv_pos_site_id
 _symmetry_equiv_pos_as_xyz
  1  'x, y, z'
loop_
 _atom_site_type_symbol
 _atom_site_label
 _atom_site_symmetry_multiplicity
 _atom_site_fract_x
 _atom_site_fract_y
 _atom_site_fract_z
 _atom_site_occupancy
  Se  Se0  1  0.12500000  0.00000000  0.25000000  1
  P  P1  1  0.00000000  0.00000000  0.00000000  1
  P  P2  1  0.37500000  0.00000000  0.25000000  1
  Mo  Mo3  1  0.25000000  0.25000000  0.25000000  1
  Mo  Mo4  1  0.00000000  0.25000000  0.12500000  1
  As  As5  1  0.77876859  0.12307616  0.89952189  1
  As  As6  1  0.37132898  0.58858521  0.16599397  1
  As  As7  1  0.35477213  0.84495560  0.11422609  1
  As  As8  1  0.79338169  0.16106720  0.93008160  1
  Li  Li9  1  0.36994212  0.88649269  0.76866211  1
  Li  Li10  1  0.55430182  0.26916153  0.13392769  1
