# generated using pymatgen
data_LiF
_symmetry_space_group_name_H-M   'P 1'
_cell_length_a   6.32246622
_cell_length_b   10.16564067
_cell_length_c   22.12375914
_cell_angle_alpha   90.00000000
_cell_angle_beta   90.00000000
_cell_angle_gamma   90.00000000
_symmetry_Int_Tables_number   1
_chemical_formula_structural   LiF
_chemical_formula_sum   'Li56 F56'
_cell_volume   1421.93647165
_cell_formula_units_Z   56
loop_
 _symmetry_equiv_pos_site_id
 _symmetry_equiv_pos_as_xyz
  1  'x, y, z'
loop_
 _atom_site_type_symbol
 _atom_site_label
 _atom_site_symmetry_multiplicity
 _atom_site_fract_x
 _atom_site_fract_y
 _atom_site_fract_z
 _atom_site_occupancy
  F  F0  1  0.87967685  0.46869566  0.77634493  1
  F  F1  1  0.62032315  0.53130434  0.27634493  1
  F  F2  1  0.12032315  0.96869566  0.22365507  1
  F  F3  1  0.37967685  0.03130434  0.72365507  1
  F  F4  1  0.12032315  0.53130434  0.22365507  1
  F  F5  1  0.37967685  0.46869566  0.72365507  1
  F  F6  1  0.87967685  0.03130434  0.77634493  1
  F  F7  1  0.62032315  0.96869566  0.27634493  1
  F  F8  1  0.18110205  0.25000000  0.39942560  1
  F  F9  1  0.31889795  0.75000000  0.89942560  1
  F  F10  1  0.81889795  0.75000000  0.60057440  1
  F  F11  1  0.68110205  0.25000000  0.10057440  1
  F  F12  1  0.15065630  0.25000000  0.22001462  1
  F  F13  1  0.34934370  0.75000000  0.72001462  1
  F  F14  1  0.84934370  0.75000000  0.77998538  1
  F  F15  1  0.65065630  0.25000000  0.27998538  1
  F  F16  1  0.82015435  0.06192197  0.19521904  1
  F  F17  1  0.67984565  0.93807803  0.69521904  1
  F  F18  1  0.17984565  0.56192197  0.80478096  1
  F  F19  1  0.32015435  0.43807803  0.30478096  1
  F  F20  1  0.17984565  0.93807803  0.80478096  1
  F  F21  1  0.32015435  0.06192197  0.30478096  1
  F  F22  1  0.82015435  0.43807803  0.19521904  1
  F  F23  1  0.67984565  0.56192197  0.69521904  1
  F  F24  1  0.84893456  0.02098465  0.01393833  1
  F  F25  1  0.65106544  0.97901535  0.51393833  1
  F  F26  1  0.15106544  0.52098465  0.98606167  1
  F  F27  1  0.34893456  0.47901535  0.48606167  1
  F  F28  1  0.15106544  0.97901535  0.98606167  1
  F  F29  1  0.34893456  0.02098465  0.48606167  1
  F  F30  1  0.84893456  0.47901535  0.01393833  1
  F  F31  1  0.65106544  0.52098465  0.51393833  1
  F  F32  1  0.43233801  0.42832553  0.05001921  1
  F  F33  1  0.06766199  0.57167447  0.55001921  1
  F  F34  1  0.56766199  0.92832553  0.94998079  1
  F  F35  1  0.93233801  0.07167447  0.44998079  1
  F  F36  1  0.56766199  0.57167447  0.94998079  1
  F  F37  1  0.93233801  0.42832553  0.44998079  1
  F  F38  1  0.43233801  0.07167447  0.05001921  1
  F  F39  1  0.06766199  0.92832553  0.55001921  1
  F  F40  1  0.04431638  0.38944892  0.47596514  1
  F  F41  1  0.45568362  0.61055108  0.97596514  1
  F  F42  1  0.95568362  0.88944892  0.52403486  1
  F  F43  1  0.54431638  0.11055108  0.02403486  1
  F  F44  1  0.95568362  0.61055108  0.52403486  1
  F  F45  1  0.54431638  0.38944892  0.02403486  1
  F  F46  1  0.04431638  0.11055108  0.47596514  1
  F  F47  1  0.45568362  0.88944892  0.97596514  1
  F  F48  1  0.38934632  0.34531333  0.07975698  1
  F  F49  1  0.11065368  0.65468667  0.57975698  1
  F  F50  1  0.61065368  0.84531333  0.92024302  1
  F  F51  1  0.88934632  0.15468667  0.42024302  1
  F  F52  1  0.61065368  0.65468667  0.92024302  1
  F  F53  1  0.88934632  0.34531333  0.42024302  1
  F  F54  1  0.38934632  0.15468667  0.07975698  1
  F  F55  1  0.11065368  0.84531333  0.57975698  1
  Li  Li56  1  0.85675072  0.08281809  0.23706486  1
  Li  Li57  1  -0.35675072  -0.08281809  0.73706486  1
  Li  Li58  1  -0.85675072  0.58281809  -0.23706486  1
  Li  Li59  1  1.35675072  0.41718191  0.26293514  1
  Li  Li60  1  -0.85675072  -0.08281809  -0.23706486  1
  Li  Li61  1  1.35675072  0.08281809  0.26293514  1
  Li  Li62  1  0.85675072  0.41718191  0.23706486  1
  Li  Li63  1  -0.35675072  0.58281809  0.73706486  1
  Li  Li64  1  0.01893816  0.25000000  0.79644120  1
  Li  Li65  1  0.48106184  0.75000000  0.29644120  1
  Li  Li66  1  0.98106184  0.75000000  0.20355880  1
  Li  Li67  1  0.51893816  0.25000000  0.70355880  1
  Li  Li68  1  0.52885482  0.04263522  0.91232857  1
  Li  Li69  1  0.97114518  0.95736478  0.41232857  1
  Li  Li70  1  0.47114518  0.54263522  0.08767143  1
  Li  Li71  1  0.02885482  0.45736478  0.58767143  1
  Li  Li72  1  0.47114518  0.95736478  0.08767143  1
  Li  Li73  1  0.02885482  0.04263522  0.58767143  1
  Li  Li74  1  0.52885482  0.45736478  0.91232857  1
  Li  Li75  1  0.97114518  0.54263522  0.41232857  1
  Li  Li76  1  0.00000000  0.00000000  0.00000000  1
  Li  Li77  1  0.50000000  -0.00000000  0.50000000  1
  Li  Li78  1  0.00000000  0.50000000  0.00000000  1
  Li  Li79  1  0.50000000  0.50000000  0.50000000  1
  Li  Li80  1  0.61964271  0.44654798  0.77807906  1
  Li  Li81  1  0.88035729  0.55345202  0.27807906  1
  Li  Li82  1  0.38035729  0.94654798  0.22192094  1
  Li  Li83  1  0.11964271  0.05345202  0.72192094  1
  Li  Li84  1  0.38035729  0.55345202  0.22192094  1
  Li  Li85  1  0.11964271  0.44654798  0.72192094  1
  Li  Li86  1  0.61964271  0.05345202  0.77807906  1
  Li  Li87  1  0.88035729  0.94654798  0.27807906  1
  Li  Li88  1  0.06008157  0.25000000  0.98399418  1
  Li  Li89  1  0.43991843  0.75000000  0.48399418  1
  Li  Li90  1  0.93991843  0.75000000  0.01600582  1
  Li  Li91  1  0.56008157  0.25000000  0.51600582  1
  Li  Li92  1  0.24639744  0.34563195  0.10287307  1
  Li  Li93  1  0.25360256  0.65436805  0.60287307  1
  Li  Li94  1  0.75360256  0.84563195  0.89712693  1
  Li  Li95  1  0.74639744  0.15436805  0.39712693  1
  Li  Li96  1  0.75360256  0.65436805  0.89712693  1
  Li  Li97  1  0.74639744  0.34563195  0.39712693  1
  Li  Li98  1  0.24639744  0.15436805  0.10287307  1
  Li  Li99  1  0.25360256  0.84563195  0.60287307  1
  Li  Li100  1  0.44355087  0.53140170  0.38063017  1
  Li  Li101  1  0.05644913  0.46859830  0.88063017  1
  Li  Li102  1  0.55644913  0.03140170  0.61936983  1
  Li  Li103  1  0.94355087  0.96859830  0.11936983  1
  Li  Li104  1  0.55644913  0.46859830  0.61936983  1
  Li  Li105  1  0.94355087  0.53140170  0.11936983  1
  Li  Li106  1  0.44355087  0.96859830  0.38063017  1
  Li  Li107  1  0.05644913  0.03140170  0.88063017  1
  Li  Li108  1  0.00000000  0.00000000  0.50000000  1
  Li  Li109  1  0.50000000  -0.00000000  0.00000000  1
  Li  Li110  1  0.00000000  0.50000000  0.50000000  1
  Li  Li111  1  0.50000000  0.50000000  0.00000000  1
