# generated using pymatgen
data_Li2Ca3F8
_symmetry_space_group_name_H-M   'P 1'
_cell_length_a   21.07360764
_cell_length_b   21.07360764
_cell_length_c   4.50106266
_cell_angle_alpha   90.00000000
_cell_angle_beta   90.00000000
_cell_angle_gamma   90.00000000
_symmetry_Int_Tables_number   1
_chemical_formula_structural   Li2Ca3F8
_chemical_formula_sum   'Li16 Ca24 F64'
_cell_volume   1998.90815042
_cell_formula_units_Z   8
loop_
 _symmetry_equiv_pos_site_id
 _symmetry_equiv_pos_as_xyz
  1  'x, y, z'
loop_
 _atom_site_type_symbol
 _atom_site_label
 _atom_site_symmetry_multiplicity
 _atom_site_fract_x
 _atom_site_fract_y
 _atom_site_fract_z
 _atom_site_occupancy
  Ca  Ca0  1  0.00000000  0.25000000  0.37500000  1
  Ca  Ca1  1  0.00000000  0.75000000  0.62500000  1
  Ca  Ca2  1  0.50000000  0.25000000  0.62500000  1
  Ca  Ca3  1  0.50000000  0.75000000  0.37500000  1
  Ca  Ca4  1  0.50000000  0.75000000  0.87500000  1
  Ca  Ca5  1  0.50000000  0.25000000  0.12500000  1
  Ca  Ca6  1  0.00000000  0.75000000  0.12500000  1
  Ca  Ca7  1  0.00000000  0.25000000  0.87500000  1
  Ca  Ca8  1  0.10999378  0.00000000  0.25000000  1
  Ca  Ca9  1  0.39000622  0.00000000  0.75000000  1
  Ca  Ca10  1  0.25000000  0.85999378  0.50000000  1
  Ca  Ca11  1  0.25000000  0.14000622  0.00000000  1
  Ca  Ca12  1  0.89000622  0.00000000  0.75000000  1
  Ca  Ca13  1  0.60999378  0.00000000  0.25000000  1
  Ca  Ca14  1  0.75000000  0.14000622  0.50000000  1
  Ca  Ca15  1  0.75000000  0.85999378  0.00000000  1
  Ca  Ca16  1  0.60999378  0.50000000  0.75000000  1
  Ca  Ca17  1  0.89000622  0.50000000  0.25000000  1
  Ca  Ca18  1  0.75000000  0.35999378  -0.00000000  1
  Ca  Ca19  1  0.75000000  0.64000622  0.50000000  1
  Ca  Ca20  1  0.39000622  0.50000000  0.25000000  1
  Ca  Ca21  1  0.10999378  0.50000000  0.75000000  1
  Ca  Ca22  1  0.25000000  0.64000622  0.00000000  1
  Ca  Ca23  1  0.25000000  0.35999378  0.50000000  1
  F  F24  1  0.89869294  0.00000000  0.25000000  1
  F  F25  1  0.60130706  0.00000000  0.75000000  1
  F  F26  1  0.25000000  0.64869294  0.50000000  1
  F  F27  1  0.25000000  0.35130706  0.00000000  1
  F  F28  1  0.10130706  -0.00000000  0.75000000  1
  F  F29  1  0.39869294  0.00000000  0.25000000  1
  F  F30  1  0.75000000  0.35130706  0.50000000  1
  F  F31  1  0.75000000  0.64869294  -0.00000000  1
  F  F32  1  0.39869294  0.50000000  0.75000000  1
  F  F33  1  0.10130706  0.50000000  0.25000000  1
  F  F34  1  0.75000000  0.14869294  -0.00000000  1
  F  F35  1  0.75000000  0.85130706  0.50000000  1
  F  F36  1  0.60130706  0.50000000  0.25000000  1
  F  F37  1  0.89869294  0.50000000  0.75000000  1
  F  F38  1  0.25000000  0.85130706  0.00000000  1
  F  F39  1  0.25000000  0.14869294  0.50000000  1
  F  F40  1  0.48302907  0.68738587  0.65260954  1
  F  F41  1  0.01697093  -0.68738587  1.15260954  1
  F  F42  1  -0.43738587  1.23302907  0.90260954  1
  F  F43  1  0.93738587  -0.23302907  1.40260954  1
  F  F44  1  0.01697093  0.68738587  -0.65260954  1
  F  F45  1  0.48302907  -0.68738587  -0.15260954  1
  F  F46  1  0.93738587  1.23302907  0.09739046  1
  F  F47  1  -0.43738587  -0.23302907  -0.40260954  1
  F  F48  1  -0.48302907  -0.68738587  -0.65260954  1
  F  F49  1  0.98302907  0.68738587  -0.15260954  1
  F  F50  1  1.43738587  -0.23302907  0.09739046  1
  F  F51  1  0.06261413  1.23302907  -0.40260954  1
  F  F52  1  0.98302907  -0.68738587  0.65260954  1
  F  F53  1  -0.48302907  0.68738587  1.15260954  1
  F  F54  1  0.06261413  -0.23302907  0.90260954  1
  F  F55  1  1.43738587  1.23302907  1.40260954  1
  F  F56  1  0.98302907  1.18738587  1.15260954  1
  F  F57  1  0.51697093  -0.18738587  1.65260954  1
  F  F58  1  0.06261413  1.73302907  1.40260954  1
  F  F59  1  1.43738587  0.26697093  1.90260954  1
  F  F60  1  0.51697093  1.18738587  -0.15260954  1
  F  F61  1  0.98302907  -0.18738587  0.34739046  1
  F  F62  1  1.43738587  1.73302907  0.59739046  1
  F  F63  1  0.06261413  0.26697093  0.09739046  1
  F  F64  1  0.01697093  -0.18738587  -0.15260954  1
  F  F65  1  1.48302907  1.18738587  0.34739046  1
  F  F66  1  1.93738587  0.26697093  0.59739046  1
  F  F67  1  0.56261413  1.73302907  0.09739046  1
  F  F68  1  1.48302907  -0.18738587  1.15260954  1
  F  F69  1  0.01697093  1.18738587  1.65260954  1
  F  F70  1  0.56261413  0.26697093  1.40260954  1
  F  F71  1  1.93738587  1.73302907  1.90260954  1
  F  F72  1  0.20105414  0.00000000  0.25000000  1
  F  F73  1  0.29894586  0.00000000  0.75000000  1
  F  F74  1  0.25000000  0.95105414  0.50000000  1
  F  F75  1  0.25000000  0.04894586  0.00000000  1
  F  F76  1  0.79894586  0.00000000  0.75000000  1
  F  F77  1  0.70105414  0.00000000  0.25000000  1
  F  F78  1  0.75000000  0.04894586  0.50000000  1
  F  F79  1  0.75000000  0.95105414  0.00000000  1
  F  F80  1  0.70105414  0.50000000  0.75000000  1
  F  F81  1  0.79894586  0.50000000  0.25000000  1
  F  F82  1  0.75000000  0.45105414  0.00000000  1
  F  F83  1  0.75000000  0.54894586  0.50000000  1
  F  F84  1  0.29894586  0.50000000  0.25000000  1
  F  F85  1  0.20105414  0.50000000  0.75000000  1
  F  F86  1  0.25000000  0.54894586  0.00000000  1
  F  F87  1  0.25000000  0.45105414  0.50000000  1
  Li  Li88  1  0.61014651  0.86014651  0.12500000  1
  Li  Li89  1  0.88985349  0.13985349  0.62500000  1
  Li  Li90  1  0.38985349  0.36014651  0.37500000  1
  Li  Li91  1  0.11014651  0.63985349  0.87500000  1
  Li  Li92  1  0.38985349  0.13985349  0.87500000  1
  Li  Li93  1  0.11014651  0.86014651  0.37500000  1
  Li  Li94  1  0.61014651  0.63985349  0.62500000  1
  Li  Li95  1  0.88985349  0.36014651  0.12500000  1
  Li  Li96  1  0.11014651  0.36014651  0.62500000  1
  Li  Li97  1  0.38985349  0.63985349  0.12500000  1
  Li  Li98  1  0.88985349  0.86014651  0.87500000  1
  Li  Li99  1  0.61014651  0.13985349  0.37500000  1
  Li  Li100  1  0.88985349  0.63985349  0.37500000  1
  Li  Li101  1  0.61014651  0.36014651  0.87500000  1
  Li  Li102  1  0.11014651  0.13985349  0.12500000  1
  Li  Li103  1  0.38985349  0.86014651  0.62500000  1
