# generated using pymatgen
data_LiF
_symmetry_space_group_name_H-M   'P 1'
_cell_length_a   11.14448349
_cell_length_b   11.14448349
_cell_length_c   12.57329508
_cell_angle_alpha   90.00000000
_cell_angle_beta   90.00000000
_cell_angle_gamma   90.00000000
_symmetry_Int_Tables_number   1
_chemical_formula_structural   LiF
_chemical_formula_sum   'Li56 F56'
_cell_volume   1561.59711608
_cell_formula_units_Z   56
loop_
 _symmetry_equiv_pos_site_id
 _symmetry_equiv_pos_as_xyz
  1  'x, y, z'
loop_
 _atom_site_type_symbol
 _atom_site_label
 _atom_site_symmetry_multiplicity
 _atom_site_fract_x
 _atom_site_fract_y
 _atom_site_fract_z
 _atom_site_occupancy
  F  F0  1  0.51493992  0.80354812  0.91788467  1
  F  F1  1  -0.01493992  -0.80354812  1.41788467  1
  F  F2  1  -0.55354812  1.26493992  1.16788467  1
  F  F3  1  1.05354812  -0.26493992  1.66788467  1
  F  F4  1  -0.01493992  0.80354812  -0.91788467  1
  F  F5  1  0.51493992  -0.80354812  -0.41788467  1
  F  F6  1  1.05354812  1.26493992  -0.16788467  1
  F  F7  1  -0.55354812  -0.26493992  -0.66788467  1
  F  F8  1  -0.51493992  -0.80354812  -0.91788467  1
  F  F9  1  1.01493992  0.80354812  -0.41788467  1
  F  F10  1  1.55354812  -0.26493992  -0.16788467  1
  F  F11  1  -0.05354812  1.26493992  -0.66788467  1
  F  F12  1  1.01493992  -0.80354812  0.91788467  1
  F  F13  1  -0.51493992  0.80354812  1.41788467  1
  F  F14  1  -0.05354812  -0.26493992  1.16788467  1
  F  F15  1  1.55354812  1.26493992  1.66788467  1
  F  F16  1  1.01493992  1.30354812  1.41788467  1
  F  F17  1  0.48506008  -0.30354812  1.91788467  1
  F  F18  1  -0.05354812  1.76493992  1.66788467  1
  F  F19  1  1.55354812  0.23506008  2.16788467  1
  F  F20  1  0.48506008  1.30354812  -0.41788467  1
  F  F21  1  1.01493992  -0.30354812  0.08211533  1
  F  F22  1  1.55354812  1.76493992  0.33211533  1
  F  F23  1  -0.05354812  0.23506008  -0.16788467  1
  F  F24  1  -0.01493992  -0.30354812  -0.41788467  1
  F  F25  1  1.51493992  1.30354812  0.08211533  1
  F  F26  1  2.05354812  0.23506008  0.33211533  1
  F  F27  1  0.44645188  1.76493992  -0.16788467  1
  F  F28  1  1.51493992  -0.30354812  1.41788467  1
  F  F29  1  -0.01493992  1.30354812  1.91788467  1
  F  F30  1  0.44645188  0.23506008  1.66788467  1
  F  F31  1  2.05354812  1.76493992  2.16788467  1
  F  F32  1  0.00000000  0.25000000  0.32904843  1
  F  F33  1  0.00000000  0.75000000  0.57904843  1
  F  F34  1  0.50000000  0.25000000  0.67095157  1
  F  F35  1  0.50000000  0.75000000  0.42095157  1
  F  F36  1  0.00000000  0.75000000  0.67095157  1
  F  F37  1  0.00000000  0.25000000  0.42095157  1
  F  F38  1  0.50000000  0.75000000  0.32904843  1
  F  F39  1  0.50000000  0.25000000  0.57904843  1
  F  F40  1  0.50000000  0.75000000  0.82904843  1
  F  F41  1  0.50000000  0.25000000  0.07904843  1
  F  F42  1  0.00000000  0.75000000  0.17095157  1
  F  F43  1  0.00000000  0.25000000  0.92095157  1
  F  F44  1  0.50000000  0.25000000  0.17095157  1
  F  F45  1  0.50000000  0.75000000  0.92095157  1
  F  F46  1  0.00000000  0.25000000  0.82904843  1
  F  F47  1  0.00000000  0.75000000  0.07904843  1
  F  F48  1  0.00000000  0.25000000  0.37500000  1
  F  F49  1  0.00000000  0.75000000  0.62500000  1
  F  F50  1  0.50000000  0.25000000  0.62500000  1
  F  F51  1  0.50000000  0.75000000  0.37500000  1
  F  F52  1  0.50000000  0.75000000  0.87500000  1
  F  F53  1  0.50000000  0.25000000  0.12500000  1
  F  F54  1  0.00000000  0.75000000  0.12500000  1
  F  F55  1  0.00000000  0.25000000  0.87500000  1
  Li  Li56  1  0.00000000  0.00000000  0.00000000  1
  Li  Li57  1  0.50000000  0.00000000  0.50000000  1
  Li  Li58  1  0.25000000  0.75000000  0.25000000  1
  Li  Li59  1  0.25000000  0.25000000  0.75000000  1
  Li  Li60  1  0.50000000  0.00000000  0.00000000  1
  Li  Li61  1  0.00000000  0.00000000  0.50000000  1
  Li  Li62  1  0.25000000  0.75000000  0.75000000  1
  Li  Li63  1  0.25000000  0.25000000  0.25000000  1
  Li  Li64  1  0.50000000  0.50000000  0.50000000  1
  Li  Li65  1  0.00000000  0.50000000  0.00000000  1
  Li  Li66  1  0.75000000  0.25000000  0.75000000  1
  Li  Li67  1  0.75000000  0.75000000  0.25000000  1
  Li  Li68  1  0.00000000  0.50000000  0.50000000  1
  Li  Li69  1  0.50000000  0.50000000  0.00000000  1
  Li  Li70  1  0.75000000  0.25000000  0.25000000  1
  Li  Li71  1  0.75000000  0.75000000  0.75000000  1
  Li  Li72  1  0.00000000  0.25000000  0.12500000  1
  Li  Li73  1  0.00000000  0.75000000  0.37500000  1
  Li  Li74  1  0.00000000  0.75000000  0.87500000  1
  Li  Li75  1  0.00000000  0.25000000  0.62500000  1
  Li  Li76  1  0.50000000  0.75000000  0.62500000  1
  Li  Li77  1  0.50000000  0.25000000  0.87500000  1
  Li  Li78  1  0.50000000  0.25000000  0.37500000  1
  Li  Li79  1  0.50000000  0.75000000  0.12500000  1
  Li  Li80  1  0.64434321  0.00000000  0.25000000  1
  Li  Li81  1  0.85565679  -0.00000000  0.75000000  1
  Li  Li82  1  0.25000000  0.39434321  0.50000000  1
  Li  Li83  1  0.25000000  0.60565679  0.00000000  1
  Li  Li84  1  0.35565679  0.00000000  0.75000000  1
  Li  Li85  1  0.14434321  0.00000000  0.25000000  1
  Li  Li86  1  0.75000000  0.60565679  0.50000000  1
  Li  Li87  1  0.75000000  0.39434321  0.00000000  1
  Li  Li88  1  0.14434321  0.50000000  0.75000000  1
  Li  Li89  1  0.35565679  0.50000000  0.25000000  1
  Li  Li90  1  0.75000000  0.89434321  0.00000000  1
  Li  Li91  1  0.75000000  0.10565679  0.50000000  1
  Li  Li92  1  0.85565679  0.50000000  0.25000000  1
  Li  Li93  1  0.64434321  0.50000000  0.75000000  1
  Li  Li94  1  0.25000000  0.10565679  0.00000000  1
  Li  Li95  1  0.25000000  0.89434321  0.50000000  1
  Li  Li96  1  0.99862545  0.00000000  0.25000000  1
  Li  Li97  1  0.50137455  -0.00000000  0.75000000  1
  Li  Li98  1  0.25000000  0.74862545  0.50000000  1
  Li  Li99  1  0.25000000  0.25137455  0.00000000  1
  Li  Li100  1  0.00137455  0.00000000  0.75000000  1
  Li  Li101  1  0.49862545  0.00000000  0.25000000  1
  Li  Li102  1  0.75000000  0.25137455  0.50000000  1
  Li  Li103  1  0.75000000  0.74862545  0.00000000  1
  Li  Li104  1  0.49862545  0.50000000  0.75000000  1
  Li  Li105  1  0.00137455  0.50000000  0.25000000  1
  Li  Li106  1  0.75000000  0.24862545  0.00000000  1
  Li  Li107  1  0.75000000  0.75137455  0.50000000  1
  Li  Li108  1  0.50137455  0.50000000  0.25000000  1
  Li  Li109  1  0.99862545  0.50000000  0.75000000  1
  Li  Li110  1  0.25000000  0.75137455  0.00000000  1
  Li  Li111  1  0.25000000  0.24862545  0.50000000  1
