# generated using pymatgen
data_LiF
_symmetry_space_group_name_H-M   'P 1'
_cell_length_a   9.15770386
_cell_length_b   9.15770386
_cell_length_c   13.79237632
_cell_angle_alpha   90.00000000
_cell_angle_beta   90.00000000
_cell_angle_gamma   120.00000000
_symmetry_Int_Tables_number   1
_chemical_formula_structural   LiF
_chemical_formula_sum   'Li32 F32'
_cell_volume   1001.71210218
_cell_formula_units_Z   32
loop_
 _symmetry_equiv_pos_site_id
 _symmetry_equiv_pos_as_xyz
  1  'x, y, z'
loop_
 _atom_site_type_symbol
 _atom_site_label
 _atom_site_symmetry_multiplicity
 _atom_site_fract_x
 _atom_site_fract_y
 _atom_site_fract_z
 _atom_site_occupancy
  F  F0  1  0.35415587  0.00000000  0.10940093  1
  F  F1  1  0.00000000  0.35415587  0.10940093  1
  F  F2  1  0.64584413  0.64584413  0.10940093  1
  F  F3  1  0.35415587  0.00000000  0.89059907  1
  F  F4  1  0.00000000  0.35415587  0.89059907  1
  F  F5  1  0.64584413  0.64584413  0.89059907  1
  F  F6  1  0.93615049  0.75969038  0.11313046  1
  F  F7  1  0.24030962  0.17646011  0.11313046  1
  F  F8  1  0.82353989  0.06384951  0.11313046  1
  F  F9  1  0.93615049  0.75969038  0.88686954  1
  F  F10  1  0.24030962  0.17646011  0.88686954  1
  F  F11  1  0.82353989  0.06384951  0.88686954  1
  F  F12  1  0.75969038  0.93615049  0.88686954  1
  F  F13  1  0.17646011  0.24030962  0.88686954  1
  F  F14  1  0.06384951  0.82353989  0.88686954  1
  F  F15  1  0.75969038  0.93615049  0.11313046  1
  F  F16  1  0.17646011  0.24030962  0.11313046  1
  F  F17  1  0.06384951  0.82353989  0.11313046  1
  F  F18  1  0.96139130  -0.00000000  0.38269505  1
  F  F19  1  0.00000000  0.96139130  0.38269505  1
  F  F20  1  0.03860870  0.03860870  0.38269505  1
  F  F21  1  0.96139130  -0.00000000  0.61730495  1
  F  F22  1  0.00000000  0.96139130  0.61730495  1
  F  F23  1  0.03860870  0.03860870  0.61730495  1
  F  F24  1  0.39859449  -0.00000000  0.50000000  1
  F  F25  1  0.00000000  0.39859449  0.50000000  1
  F  F26  1  0.60140551  0.60140551  0.50000000  1
  F  F27  1  0.00000000  0.00000000  0.32846462  1
  F  F28  1  0.00000000  0.00000000  0.67153538  1
  F  F29  1  0.57167429  0.00000000  -0.00000000  1
  F  F30  1  0.00000000  0.57167429  0.00000000  1
  F  F31  1  0.42832571  0.42832571  0.00000000  1
  Li  Li32  1  0.00000000  0.00000000  0.91260584  1
  Li  Li33  1  0.00000000  0.00000000  0.08739416  1
  Li  Li34  1  0.65411060  0.00000000  0.67474420  1
  Li  Li35  1  0.00000000  0.65411060  0.67474420  1
  Li  Li36  1  0.34588940  0.34588940  0.67474420  1
  Li  Li37  1  0.65411060  0.00000000  0.32525580  1
  Li  Li38  1  0.00000000  0.65411060  0.32525580  1
  Li  Li39  1  0.34588940  0.34588940  0.32525580  1
  Li  Li40  1  0.00000000  0.00000000  0.50000000  1
  Li  Li41  1  0.39473425  0.00000000  -0.00000000  1
  Li  Li42  1  0.00000000  0.39473425  0.00000000  1
  Li  Li43  1  0.60526575  0.60526575  0.00000000  1
  Li  Li44  1  0.33333333  0.66666667  0.50000000  1
  Li  Li45  1  0.66666667  0.33333333  0.50000000  1
  Li  Li46  1  0.39993790  0.20095045  -0.00000000  1
  Li  Li47  1  0.79904955  0.19898745  0.00000000  1
  Li  Li48  1  0.80101255  0.60006210  0.00000000  1
  Li  Li49  1  0.20095045  0.39993790  -0.00000000  1
  Li  Li50  1  0.19898745  0.79904955  0.00000000  1
  Li  Li51  1  0.60006210  0.80101255  -0.00000000  1
  Li  Li52  1  0.63732006  0.75542638  0.77260116  1
  Li  Li53  1  -0.75542638  -0.11810633  0.77260116  1
  Li  Li54  1  0.11810633  -0.63732006  0.77260116  1
  Li  Li55  1  0.63732006  0.75542638  -0.77260116  1
  Li  Li56  1  -0.75542638  -0.11810633  -0.77260116  1
  Li  Li57  1  0.11810633  -0.63732006  -0.77260116  1
  Li  Li58  1  0.75542638  0.63732006  -0.77260116  1
  Li  Li59  1  -0.11810633  -0.75542638  -0.77260116  1
  Li  Li60  1  -0.63732006  0.11810633  -0.77260116  1
  Li  Li61  1  0.75542638  0.63732006  0.77260116  1
  Li  Li62  1  -0.11810633  -0.75542638  0.77260116  1
  Li  Li63  1  -0.63732006  0.11810633  0.77260116  1
