# generated using pymatgen
data_LiF
_symmetry_space_group_name_H-M   'P 1'
_cell_length_a   10.18211509
_cell_length_b   9.24651939
_cell_length_c   9.33598751
_cell_angle_alpha   90.00000000
_cell_angle_beta   90.00000000
_cell_angle_gamma   90.00000000
_symmetry_Int_Tables_number   1
_chemical_formula_structural   LiF
_chemical_formula_sum   'Li28 F28'
_cell_volume   878.97505151
_cell_formula_units_Z   28
loop_
 _symmetry_equiv_pos_site_id
 _symmetry_equiv_pos_as_xyz
  1  'x, y, z'
loop_
 _atom_site_type_symbol
 _atom_site_label
 _atom_site_symmetry_multiplicity
 _atom_site_fract_x
 _atom_site_fract_y
 _atom_site_fract_z
 _atom_site_occupancy
  F  F0  1  0.00000000  0.50000000  0.00000000  1
  F  F1  1  0.50000000  0.00000000  0.00000000  1
  F  F2  1  0.85143844  0.83633845  0.20014348  1
  F  F3  1  0.14856156  0.16366155  0.20014348  1
  F  F4  1  0.64856156  0.33633845  0.79985652  1
  F  F5  1  0.35143844  0.66366155  0.79985652  1
  F  F6  1  0.14856156  0.16366155  0.79985652  1
  F  F7  1  0.85143844  0.83633845  0.79985652  1
  F  F8  1  0.35143844  0.66366155  0.20014348  1
  F  F9  1  0.64856156  0.33633845  0.20014348  1
  F  F10  1  0.00000000  0.50000000  0.50000000  1
  F  F11  1  0.50000000  0.00000000  0.50000000  1
  F  F12  1  0.12278321  0.88687860  0.66762506  1
  F  F13  1  0.87721679  0.11312140  0.66762506  1
  F  F14  1  0.37721679  0.38687860  0.33237494  1
  F  F15  1  0.62278321  0.61312140  0.33237494  1
  F  F16  1  0.87721679  0.11312140  0.33237494  1
  F  F17  1  0.12278321  0.88687860  0.33237494  1
  F  F18  1  0.62278321  0.61312140  0.66762506  1
  F  F19  1  0.37721679  0.38687860  0.66762506  1
  F  F20  1  0.53613804  0.03132600  0.03522258  1
  F  F21  1  0.46386196  0.96867400  0.03522258  1
  F  F22  1  0.96386196  0.53132600  0.96477742  1
  F  F23  1  0.03613804  0.46867400  0.96477742  1
  F  F24  1  0.46386196  0.96867400  0.96477742  1
  F  F25  1  0.53613804  0.03132600  0.96477742  1
  F  F26  1  0.03613804  0.46867400  0.03522258  1
  F  F27  1  0.96386196  0.53132600  0.03522258  1
  Li  Li28  1  0.00000000  0.00000000  0.50000000  1
  Li  Li29  1  0.50000000  0.50000000  0.50000000  1
  Li  Li30  1  0.05321689  0.38726714  0.50000000  1
  Li  Li31  1  0.94678311  0.61273286  0.50000000  1
  Li  Li32  1  0.44678311  0.88726714  0.50000000  1
  Li  Li33  1  0.55321689  0.11273286  0.50000000  1
  Li  Li34  1  0.00000000  0.00000000  0.00000000  1
  Li  Li35  1  0.50000000  0.50000000  0.00000000  1
  Li  Li36  1  0.36323831  0.50086872  0.61900535  1
  Li  Li37  1  -0.36323831  -0.50086872  0.61900535  1
  Li  Li38  1  0.13676169  1.00086872  -0.61900535  1
  Li  Li39  1  0.86323831  -0.00086872  -0.61900535  1
  Li  Li40  1  -0.36323831  -0.50086872  -0.61900535  1
  Li  Li41  1  0.36323831  0.50086872  -0.61900535  1
  Li  Li42  1  0.86323831  -0.00086872  0.61900535  1
  Li  Li43  1  0.13676169  1.00086872  0.61900535  1
  Li  Li44  1  0.91838259  0.57656971  0.87427374  1
  Li  Li45  1  0.08161741  0.42343029  0.87427374  1
  Li  Li46  1  0.58161741  0.07656971  0.12572626  1
  Li  Li47  1  0.41838259  0.92343029  0.12572626  1
  Li  Li48  1  0.08161741  0.42343029  0.12572626  1
  Li  Li49  1  0.91838259  0.57656971  0.12572626  1
  Li  Li50  1  0.41838259  0.92343029  0.87427374  1
  Li  Li51  1  0.58161741  0.07656971  0.87427374  1
  Li  Li52  1  0.00000000  0.50000000  0.26700863  1
  Li  Li53  1  0.50000000  0.00000000  0.73299137  1
  Li  Li54  1  0.00000000  0.50000000  0.73299137  1
  Li  Li55  1  0.50000000  0.00000000  0.26700863  1
