# generated using pymatgen
data_LiY2Cu3MoP2
_symmetry_space_group_name_H-M   'P 1'
_cell_length_a   4.51935029
_cell_length_b   4.77303000
_cell_length_c   6.85970168
_cell_angle_alpha   95.54342004
_cell_angle_beta   101.81046246
_cell_angle_gamma   111.85490202
_symmetry_Int_Tables_number   1
_chemical_formula_structural   LiY2Cu3MoP2
_chemical_formula_sum   'Li1 Y2 Cu3 Mo1 P2'
_cell_volume   131.97457397
_cell_formula_units_Z   1
loop_
 _symmetry_equiv_pos_site_id
 _symmetry_equiv_pos_as_xyz
  1  'x, y, z'
loop_
 _atom_site_type_symbol
 _atom_site_label
 _atom_site_symmetry_multiplicity
 _atom_site_fract_x
 _atom_site_fract_y
 _atom_site_fract_z
 _atom_site_occupancy
  Cu  Cu0  1  0.00000000  0.00000000  0.00000000  1
  Cu  Cu1  1  0.50000000  0.50000000  0.50000000  1
  Cu  Cu2  1  0.25000000  0.25000000  0.25000000  1
  P  P3  1  0.75000000  0.25000000  0.00000000  1
  P  P4  1  0.25000000  0.75000000  0.50000000  1
  Mo  Mo5  1  0.44488882  0.30479113  0.45011147  1
  Li  Li6  1  0.99611679  0.69271758  0.49451139  1
  Y  Y7  1  0.12347557  0.89185456  0.26040707  1
  Y  Y8  1  0.06514790  0.30286927  0.76368456  1
