# generated using pymatgen
data_LiF
_symmetry_space_group_name_H-M   'P 1'
_cell_length_a   10.90829623
_cell_length_b   10.90829623
_cell_length_c   14.45777173
_cell_angle_alpha   90.00000000
_cell_angle_beta   90.00000000
_cell_angle_gamma   90.00000000
_symmetry_Int_Tables_number   1
_chemical_formula_structural   LiF
_chemical_formula_sum   'Li64 F64'
_cell_volume   1720.34365553
_cell_formula_units_Z   64
loop_
 _symmetry_equiv_pos_site_id
 _symmetry_equiv_pos_as_xyz
  1  'x, y, z'
loop_
 _atom_site_type_symbol
 _atom_site_label
 _atom_site_symmetry_multiplicity
 _atom_site_fract_x
 _atom_site_fract_y
 _atom_site_fract_z
 _atom_site_occupancy
  F  F0  1  0.19872717  0.92177541  0.13625252  1
  F  F1  1  0.30127283  0.07822459  0.63625252  1
  F  F2  1  0.32822459  0.94872717  0.38625252  1
  F  F3  1  0.17177541  0.05127283  0.88625252  1
  F  F4  1  0.30127283  0.92177541  0.86374748  1
  F  F5  1  0.19872717  0.07822459  0.36374748  1
  F  F6  1  0.17177541  0.94872717  0.61374748  1
  F  F7  1  0.32822459  0.05127283  0.11374748  1
  F  F8  1  0.80127283  0.07822459  0.86374748  1
  F  F9  1  0.69872717  0.92177541  0.36374748  1
  F  F10  1  0.67177541  0.05127283  0.61374748  1
  F  F11  1  0.82822459  0.94872717  0.11374748  1
  F  F12  1  0.69872717  0.07822459  0.13625252  1
  F  F13  1  0.80127283  0.92177541  0.63625252  1
  F  F14  1  0.82822459  0.05127283  0.38625252  1
  F  F15  1  0.67177541  0.94872717  0.88625252  1
  F  F16  1  0.69872717  0.42177541  0.63625252  1
  F  F17  1  0.80127283  0.57822459  0.13625252  1
  F  F18  1  0.82822459  0.44872717  0.88625252  1
  F  F19  1  0.67177541  0.55127283  0.38625252  1
  F  F20  1  0.80127283  0.42177541  0.36374748  1
  F  F21  1  0.69872717  0.57822459  0.86374748  1
  F  F22  1  0.67177541  0.44872717  0.11374748  1
  F  F23  1  0.82822459  0.55127283  0.61374748  1
  F  F24  1  0.30127283  0.57822459  0.36374748  1
  F  F25  1  0.19872717  0.42177541  0.86374748  1
  F  F26  1  0.17177541  0.55127283  0.11374748  1
  F  F27  1  0.32822459  0.44872717  0.61374748  1
  F  F28  1  0.19872717  0.57822459  0.63625252  1
  F  F29  1  0.30127283  0.42177541  0.13625252  1
  F  F30  1  0.32822459  0.55127283  0.88625252  1
  F  F31  1  0.17177541  0.44872717  0.38625252  1
  F  F32  1  0.33670473  0.26568706  0.26924422  1
  F  F33  1  0.16329527  0.73431294  0.76924422  1
  F  F34  1  0.98431294  0.08670473  0.51924422  1
  F  F35  1  0.51568706  0.91329527  0.01924422  1
  F  F36  1  0.16329527  0.26568706  0.73075578  1
  F  F37  1  0.33670473  0.73431294  0.23075578  1
  F  F38  1  0.51568706  0.08670473  0.48075578  1
  F  F39  1  0.98431294  0.91329527  0.98075578  1
  F  F40  1  0.66329527  0.73431294  0.73075578  1
  F  F41  1  0.83670473  0.26568706  0.23075578  1
  F  F42  1  0.01568706  0.91329527  0.48075578  1
  F  F43  1  0.48431294  0.08670473  0.98075578  1
  F  F44  1  0.83670473  0.73431294  0.26924422  1
  F  F45  1  0.66329527  0.26568706  0.76924422  1
  F  F46  1  0.48431294  0.91329527  0.51924422  1
  F  F47  1  0.01568706  0.08670473  0.01924422  1
  F  F48  1  0.83670473  0.76568706  0.76924422  1
  F  F49  1  0.66329527  0.23431294  0.26924422  1
  F  F50  1  0.48431294  0.58670473  0.01924422  1
  F  F51  1  0.01568706  0.41329527  0.51924422  1
  F  F52  1  0.66329527  0.76568706  0.23075578  1
  F  F53  1  0.83670473  0.23431294  0.73075578  1
  F  F54  1  0.01568706  0.58670473  0.98075578  1
  F  F55  1  0.48431294  0.41329527  0.48075578  1
  F  F56  1  0.16329527  0.23431294  0.23075578  1
  F  F57  1  0.33670473  0.76568706  0.73075578  1
  F  F58  1  0.51568706  0.41329527  0.98075578  1
  F  F59  1  0.98431294  0.58670473  0.48075578  1
  F  F60  1  0.33670473  0.23431294  0.76924422  1
  F  F61  1  0.16329527  0.76568706  0.26924422  1
  F  F62  1  0.98431294  0.41329527  0.01924422  1
  F  F63  1  0.51568706  0.58670473  0.51924422  1
  Li  Li64  1  0.92524383  0.05382395  0.16741582  1
  Li  Li65  1  -0.42524383  -0.05382395  0.66741582  1
  Li  Li66  1  0.19617605  1.67524383  0.41741582  1
  Li  Li67  1  0.30382395  -0.67524383  0.91741582  1
  Li  Li68  1  -0.42524383  0.05382395  -0.16741582  1
  Li  Li69  1  0.92524383  -0.05382395  0.33258418  1
  Li  Li70  1  0.30382395  1.67524383  0.58258418  1
  Li  Li71  1  0.19617605  -0.67524383  0.08258418  1
  Li  Li72  1  -0.92524383  -0.05382395  -0.16741582  1
  Li  Li73  1  1.42524383  0.05382395  0.33258418  1
  Li  Li74  1  0.80382395  -0.67524383  0.58258418  1
  Li  Li75  1  0.69617605  1.67524383  0.08258418  1
  Li  Li76  1  1.42524383  -0.05382395  0.16741582  1
  Li  Li77  1  -0.92524383  0.05382395  0.66741582  1
  Li  Li78  1  0.69617605  -0.67524383  0.41741582  1
  Li  Li79  1  0.80382395  1.67524383  0.91741582  1
  Li  Li80  1  1.42524383  0.55382395  0.66741582  1
  Li  Li81  1  0.07475617  0.44617605  1.16741582  1
  Li  Li82  1  0.69617605  2.17524383  0.91741582  1
  Li  Li83  1  0.80382395  -0.17524383  1.41741582  1
  Li  Li84  1  0.07475617  0.55382395  0.33258418  1
  Li  Li85  1  1.42524383  0.44617605  0.83258418  1
  Li  Li86  1  0.80382395  2.17524383  1.08258418  1
  Li  Li87  1  0.69617605  -0.17524383  0.58258418  1
  Li  Li88  1  -0.42524383  0.44617605  0.33258418  1
  Li  Li89  1  1.92524383  0.55382395  0.83258418  1
  Li  Li90  1  1.30382395  -0.17524383  1.08258418  1
  Li  Li91  1  1.19617605  2.17524383  0.58258418  1
  Li  Li92  1  1.92524383  0.44617605  0.66741582  1
  Li  Li93  1  -0.42524383  0.55382395  1.16741582  1
  Li  Li94  1  1.19617605  -0.17524383  0.91741582  1
  Li  Li95  1  1.30382395  2.17524383  1.41741582  1
  Li  Li96  1  0.00000000  0.00000000  0.00000000  1
  Li  Li97  1  0.50000000  0.00000000  0.50000000  1
  Li  Li98  1  0.25000000  0.75000000  0.25000000  1
  Li  Li99  1  0.25000000  0.25000000  0.75000000  1
  Li  Li100  1  0.50000000  0.00000000  0.00000000  1
  Li  Li101  1  0.00000000  0.00000000  0.50000000  1
  Li  Li102  1  0.25000000  0.75000000  0.75000000  1
  Li  Li103  1  0.25000000  0.25000000  0.25000000  1
  Li  Li104  1  0.50000000  0.50000000  0.50000000  1
  Li  Li105  1  0.00000000  0.50000000  0.00000000  1
  Li  Li106  1  0.75000000  0.25000000  0.75000000  1
  Li  Li107  1  0.75000000  0.75000000  0.25000000  1
  Li  Li108  1  0.00000000  0.50000000  0.50000000  1
  Li  Li109  1  0.50000000  0.50000000  0.00000000  1
  Li  Li110  1  0.75000000  0.25000000  0.25000000  1
  Li  Li111  1  0.75000000  0.75000000  0.75000000  1
  Li  Li112  1  0.00000000  0.25000000  0.37500000  1
  Li  Li113  1  0.00000000  0.75000000  0.62500000  1
  Li  Li114  1  0.50000000  0.25000000  0.62500000  1
  Li  Li115  1  0.50000000  0.75000000  0.37500000  1
  Li  Li116  1  0.50000000  0.75000000  0.87500000  1
  Li  Li117  1  0.50000000  0.25000000  0.12500000  1
  Li  Li118  1  0.00000000  0.75000000  0.12500000  1
  Li  Li119  1  0.00000000  0.25000000  0.87500000  1
  Li  Li120  1  0.00000000  0.25000000  0.12500000  1
  Li  Li121  1  0.00000000  0.75000000  0.37500000  1
  Li  Li122  1  0.00000000  0.75000000  0.87500000  1
  Li  Li123  1  0.00000000  0.25000000  0.62500000  1
  Li  Li124  1  0.50000000  0.75000000  0.62500000  1
  Li  Li125  1  0.50000000  0.25000000  0.87500000  1
  Li  Li126  1  0.50000000  0.25000000  0.37500000  1
  Li  Li127  1  0.50000000  0.75000000  0.12500000  1
