# generated using pymatgen
data_LiF
_symmetry_space_group_name_H-M   'P 1'
_cell_length_a   8.49595651
_cell_length_b   8.49595651
_cell_length_c   13.18058028
_cell_angle_alpha   90.00000000
_cell_angle_beta   90.00000000
_cell_angle_gamma   120.00000000
_symmetry_Int_Tables_number   1
_chemical_formula_structural   LiF
_chemical_formula_sum   'Li43 F43'
_cell_volume   823.92887643
_cell_formula_units_Z   43
loop_
 _symmetry_equiv_pos_site_id
 _symmetry_equiv_pos_as_xyz
  1  'x, y, z'
loop_
 _atom_site_type_symbol
 _atom_site_label
 _atom_site_symmetry_multiplicity
 _atom_site_fract_x
 _atom_site_fract_y
 _atom_site_fract_z
 _atom_site_occupancy
  F  F0  1  0.19149651  0.80850349  0.00000000  1
  F  F1  1  0.19149651  0.38299301  0.00000000  1
  F  F2  1  0.61700699  0.80850349  0.00000000  1
  F  F3  1  0.66666667  0.33333333  0.50000000  1
  F  F4  1  0.75155278  0.24844722  0.50000000  1
  F  F5  1  0.75155278  0.50310557  0.50000000  1
  F  F6  1  0.49689443  0.24844722  0.50000000  1
  F  F7  1  0.45535005  0.67280155  0.87733052  1
  F  F8  1  0.32719845  0.78254850  0.87733052  1
  F  F9  1  0.21745150  0.54464995  0.87733052  1
  F  F10  1  0.32719845  0.54464995  0.12266948  1
  F  F11  1  0.21745150  0.67280155  0.12266948  1
  F  F12  1  0.45535005  0.78254850  0.12266948  1
  F  F13  1  0.04817743  0.93424197  0.25791496  1
  F  F14  1  0.06575803  0.11393546  0.25791496  1
  F  F15  1  0.88606454  0.95182257  0.25791496  1
  F  F16  1  0.06575803  0.95182257  0.74208504  1
  F  F17  1  0.88606454  0.93424197  0.74208504  1
  F  F18  1  0.04817743  0.11393546  0.74208504  1
  F  F19  1  0.59281967  0.39735954  0.26276246  1
  F  F20  1  0.60264046  0.19546013  0.26276246  1
  F  F21  1  0.80453987  0.40718033  0.26276246  1
  F  F22  1  0.60264046  0.40718033  0.73723754  1
  F  F23  1  0.80453987  0.39735954  0.73723754  1
  F  F24  1  0.59281967  0.19546013  0.73723754  1
  F  F25  1  0.67227651  0.71992516  0.35771054  1
  F  F26  1  0.28007484  0.95235135  0.35771054  1
  F  F27  1  0.04764865  0.32772349  0.35771054  1
  F  F28  1  0.28007484  0.32772349  0.64228946  1
  F  F29  1  0.04764865  0.71992516  0.64228946  1
  F  F30  1  0.67227651  0.95235135  0.64228946  1
  F  F31  1  0.82558596  0.33474081  0.68493213  1
  F  F32  1  0.66525919  0.49084516  0.68493213  1
  F  F33  1  0.50915484  0.17441404  0.68493213  1
  F  F34  1  0.66525919  0.17441404  0.31506787  1
  F  F35  1  0.50915484  0.33474081  0.31506787  1
  F  F36  1  0.82558596  0.49084516  0.31506787  1
  F  F37  1  0.29067716  0.89478652  0.87505182  1
  F  F38  1  0.10521348  0.39589064  0.87505182  1
  F  F39  1  0.60410936  0.70932284  0.87505182  1
  F  F40  1  0.10521348  0.70932284  0.12494818  1
  F  F41  1  0.60410936  0.89478652  0.12494818  1
  F  F42  1  0.29067716  0.39589064  0.12494818  1
  Li  Li43  1  0.66666667  0.33333333  0.21530125  1
  Li  Li44  1  0.66666667  0.33333333  0.78469875  1
  Li  Li45  1  0.13289593  0.20638427  0.20683893  1
  Li  Li46  1  -0.20638427  -0.07348834  0.20683893  1
  Li  Li47  1  0.07348834  -0.13289593  0.20683893  1
  Li  Li48  1  -0.20638427  -0.13289593  -0.20683893  1
  Li  Li49  1  0.07348834  0.20638427  -0.20683893  1
  Li  Li50  1  0.13289593  -0.07348834  -0.20683893  1
  Li  Li51  1  0.15475488  0.61846570  0.79816489  1
  Li  Li52  1  0.38153430  0.53628919  0.79816489  1
  Li  Li53  1  0.46371081  0.84524512  0.79816489  1
  Li  Li54  1  0.38153430  0.84524512  0.20183511  1
  Li  Li55  1  0.46371081  0.61846570  0.20183511  1
  Li  Li56  1  0.15475488  0.53628919  0.20183511  1
  Li  Li57  1  0.58985349  0.41014651  0.50000000  1
  Li  Li58  1  0.58985349  0.17970698  0.50000000  1
  Li  Li59  1  0.82029302  0.41014651  0.50000000  1
  Li  Li60  1  0.33333333  0.66666667  0.50000000  1
  Li  Li61  1  0.81552859  0.91465455  0.58013910  1
  Li  Li62  1  0.08534545  0.90087404  0.58013910  1
  Li  Li63  1  0.09912596  0.18447141  0.58013910  1
  Li  Li64  1  0.08534545  0.18447141  0.41986090  1
  Li  Li65  1  0.09912596  0.91465455  0.41986090  1
  Li  Li66  1  0.81552859  0.90087404  0.41986090  1
  Li  Li67  1  0.00000000  0.00000000  0.00000000  1
  Li  Li68  1  0.88060998  0.11939002  0.00000000  1
  Li  Li69  1  0.88060998  0.76121995  0.00000000  1
  Li  Li70  1  0.23878005  0.11939002  0.00000000  1
  Li  Li71  1  0.00000000  0.00000000  0.50000000  1
  Li  Li72  1  0.57895923  0.95140002  0.71079803  1
  Li  Li73  1  0.04859998  0.62755921  0.71079803  1
  Li  Li74  1  0.37244079  0.42104077  0.71079803  1
  Li  Li75  1  0.04859998  0.42104077  0.28920197  1
  Li  Li76  1  0.37244079  0.95140002  0.28920197  1
  Li  Li77  1  0.57895923  0.62755921  0.28920197  1
  Li  Li78  1  0.54827411  0.04957307  0.84518859  1
  Li  Li79  1  0.95042693  0.49870104  0.84518859  1
  Li  Li80  1  0.50129896  0.45172589  0.84518859  1
  Li  Li81  1  0.95042693  0.45172589  0.15481141  1
  Li  Li82  1  0.50129896  0.04957307  0.15481141  1
  Li  Li83  1  0.54827411  0.49870104  0.15481141  1
  Li  Li84  1  0.33333333  0.66666667  0.61077890  1
  Li  Li85  1  0.33333333  0.66666667  0.38922110  1
