# generated using pymatgen
data_LiF
_symmetry_space_group_name_H-M   'P 1'
_cell_length_a   6.61309078
_cell_length_b   13.24630810
_cell_length_c   8.64204666
_cell_angle_alpha   90.00000000
_cell_angle_beta   90.00000000
_cell_angle_gamma   90.00000000
_symmetry_Int_Tables_number   1
_chemical_formula_structural   LiF
_chemical_formula_sum   'Li24 F24'
_cell_volume   757.03497270
_cell_formula_units_Z   24
loop_
 _symmetry_equiv_pos_site_id
 _symmetry_equiv_pos_as_xyz
  1  'x, y, z'
loop_
 _atom_site_type_symbol
 _atom_site_label
 _atom_site_symmetry_multiplicity
 _atom_site_fract_x
 _atom_site_fract_y
 _atom_site_fract_z
 _atom_site_occupancy
  F  F0  1  0.88710857  0.09482655  0.99985645  1
  F  F1  1  0.61289143  0.90517345  0.49985645  1
  F  F2  1  0.11289143  0.59482655  0.00014355  1
  F  F3  1  0.38710857  0.40517345  0.50014355  1
  F  F4  1  0.11289143  0.90517345  0.00014355  1
  F  F5  1  0.38710857  0.09482655  0.50014355  1
  F  F6  1  0.88710857  0.40517345  0.99985645  1
  F  F7  1  0.61289143  0.59482655  0.49985645  1
  F  F8  1  0.28985591  0.32168178  0.99899212  1
  F  F9  1  0.21014409  0.67831822  0.49899212  1
  F  F10  1  0.71014409  0.82168178  0.00100788  1
  F  F11  1  0.78985591  0.17831822  0.50100788  1
  F  F12  1  0.71014409  0.67831822  0.00100788  1
  F  F13  1  0.78985591  0.32168178  0.50100788  1
  F  F14  1  0.28985591  0.17831822  0.99899212  1
  F  F15  1  0.21014409  0.82168178  0.49899212  1
  F  F16  1  0.15572126  0.52664930  0.64855701  1
  F  F17  1  0.34427874  0.47335070  0.14855701  1
  F  F18  1  0.84427874  0.02664930  0.35144299  1
  F  F19  1  0.65572126  0.97335070  0.85144299  1
  F  F20  1  0.84427874  0.47335070  0.35144299  1
  F  F21  1  0.65572126  0.52664930  0.85144299  1
  F  F22  1  0.15572126  0.97335070  0.64855701  1
  F  F23  1  0.34427874  0.02664930  0.14855701  1
  Li  Li24  1  0.57456909  0.39220098  0.08970730  1
  Li  Li25  1  -0.07456909  -0.39220098  0.58970730  1
  Li  Li26  1  -0.57456909  0.89220098  -0.08970730  1
  Li  Li27  1  1.07456909  0.10779902  0.41029270  1
  Li  Li28  1  -0.57456909  -0.39220098  -0.08970730  1
  Li  Li29  1  1.07456909  0.39220098  0.41029270  1
  Li  Li30  1  0.57456909  0.10779902  0.08970730  1
  Li  Li31  1  -0.07456909  0.89220098  0.58970730  1
  Li  Li32  1  0.12298143  0.25000000  0.75135642  1
  Li  Li33  1  0.37701857  0.75000000  0.25135642  1
  Li  Li34  1  0.87701857  0.75000000  0.24864358  1
  Li  Li35  1  0.62298143  0.25000000  0.74864358  1
  Li  Li36  1  0.06708071  0.36885583  0.69563411  1
  Li  Li37  1  0.43291929  0.63114417  0.19563411  1
  Li  Li38  1  0.93291929  0.86885583  0.30436589  1
  Li  Li39  1  0.56708071  0.13114417  0.80436589  1
  Li  Li40  1  0.93291929  0.63114417  0.30436589  1
  Li  Li41  1  0.56708071  0.36885583  0.80436589  1
  Li  Li42  1  0.06708071  0.13114417  0.69563411  1
  Li  Li43  1  0.43291929  0.86885583  0.19563411  1
  Li  Li44  1  0.00000000  0.00000000  0.50000000  1
  Li  Li45  1  0.50000000  0.00000000  0.00000000  1
  Li  Li46  1  0.00000000  0.50000000  0.50000000  1
  Li  Li47  1  0.50000000  0.50000000  0.00000000  1
