# generated using pymatgen
data_Li4TeF2
_symmetry_space_group_name_H-M   'P 1'
_cell_length_a   10.98694878
_cell_length_b   10.98694878
_cell_length_c   23.16067231
_cell_angle_alpha   90.00000000
_cell_angle_beta   90.00000000
_cell_angle_gamma   120.00000000
_symmetry_Int_Tables_number   1
_chemical_formula_structural   Li4TeF2
_chemical_formula_sum   'Li96 Te24 F48'
_cell_volume   2421.22970549
_cell_formula_units_Z   24
loop_
 _symmetry_equiv_pos_site_id
 _symmetry_equiv_pos_as_xyz
  1  'x, y, z'
loop_
 _atom_site_type_symbol
 _atom_site_label
 _atom_site_symmetry_multiplicity
 _atom_site_fract_x
 _atom_site_fract_y
 _atom_site_fract_z
 _atom_site_occupancy
  F  F0  1  0.90511548  0.72851474  0.93136107  1
  F  F1  1  -0.72851474  0.17660074  0.93136107  1
  F  F2  1  -0.17660074  -0.90511548  0.93136107  1
  F  F3  1  0.72851474  0.90511548  -0.43136107  1
  F  F4  1  0.17660074  -0.72851474  -0.43136107  1
  F  F5  1  -0.90511548  -0.17660074  -0.43136107  1
  F  F6  1  -0.90511548  -0.72851474  -0.93136107  1
  F  F7  1  0.72851474  -0.17660074  -0.93136107  1
  F  F8  1  0.17660074  0.90511548  -0.93136107  1
  F  F9  1  -0.72851474  -0.90511548  1.43136107  1
  F  F10  1  -0.17660074  0.72851474  1.43136107  1
  F  F11  1  0.90511548  0.17660074  1.43136107  1
  F  F12  1  1.57178215  1.06184807  1.26469440  1
  F  F13  1  -0.06184807  0.50993408  1.26469440  1
  F  F14  1  0.49006592  -0.57178215  1.26469440  1
  F  F15  1  1.39518140  1.23844881  -0.09802773  1
  F  F16  1  0.84326741  -0.39518140  -0.09802773  1
  F  F17  1  -0.23844881  0.15673259  -0.09802773  1
  F  F18  1  -0.23844881  -0.39518140  -0.59802773  1
  F  F19  1  1.39518140  0.15673259  -0.59802773  1
  F  F20  1  0.84326741  1.23844881  -0.59802773  1
  F  F21  1  -0.06184807  -0.57178215  1.76469440  1
  F  F22  1  0.49006592  1.06184807  1.76469440  1
  F  F23  1  1.57178215  0.50993408  1.76469440  1
  F  F24  1  1.23844881  1.39518140  1.59802773  1
  F  F25  1  -0.39518140  0.84326741  1.59802773  1
  F  F26  1  0.15673259  -0.23844881  1.59802773  1
  F  F27  1  1.06184807  1.57178215  0.23530560  1
  F  F28  1  0.50993408  -0.06184807  0.23530560  1
  F  F29  1  -0.57178215  0.49006592  0.23530560  1
  F  F30  1  -0.57178215  -0.06184807  -0.26469440  1
  F  F31  1  1.06184807  0.49006592  -0.26469440  1
  F  F32  1  0.50993408  1.57178215  -0.26469440  1
  F  F33  1  -0.39518140  -0.23844881  2.09802773  1
  F  F34  1  0.15673259  1.39518140  2.09802773  1
  F  F35  1  1.23844881  0.84326741  2.09802773  1
  F  F36  1  0.00000000  0.00000000  0.80291024  1
  F  F37  1  0.00000000  0.00000000  0.69708976  1
  F  F38  1  0.00000000  0.00000000  0.19708976  1
  F  F39  1  0.00000000  0.00000000  0.30291024  1
  F  F40  1  0.66666667  0.33333333  0.13624358  1
  F  F41  1  0.66666667  0.33333333  0.03042309  1
  F  F42  1  0.66666667  0.33333333  0.53042309  1
  F  F43  1  0.66666667  0.33333333  0.63624358  1
  F  F44  1  0.33333333  0.66666667  0.46957691  1
  F  F45  1  0.33333333  0.66666667  0.36375642  1
  F  F46  1  0.33333333  0.66666667  0.86375642  1
  F  F47  1  0.33333333  0.66666667  0.96957691  1
  Li  Li48  1  0.63226821  0.89750072  0.20877293  1
  Li  Li49  1  0.10249928  0.73476750  0.20877293  1
  Li  Li50  1  0.26523250  0.36773179  0.20877293  1
  Li  Li51  1  0.89750072  0.63226821  0.29122707  1
  Li  Li52  1  0.73476750  0.10249928  0.29122707  1
  Li  Li53  1  0.36773179  0.26523250  0.29122707  1
  Li  Li54  1  0.36773179  0.10249928  0.79122707  1
  Li  Li55  1  0.89750072  0.26523250  0.79122707  1
  Li  Li56  1  0.73476750  0.63226821  0.79122707  1
  Li  Li57  1  0.10249928  0.36773179  0.70877293  1
  Li  Li58  1  0.26523250  0.89750072  0.70877293  1
  Li  Li59  1  0.63226821  0.73476750  0.70877293  1
  Li  Li60  1  0.29893488  0.23083405  0.54210626  1
  Li  Li61  1  0.76916595  0.06810083  0.54210626  1
  Li  Li62  1  0.93189917  0.70106512  0.54210626  1
  Li  Li63  1  0.56416738  0.96560155  0.62456040  1
  Li  Li64  1  0.40143416  0.43583262  0.62456040  1
  Li  Li65  1  0.03439845  0.59856584  0.62456040  1
  Li  Li66  1  0.03439845  0.43583262  0.12456040  1
  Li  Li67  1  0.56416738  0.59856584  0.12456040  1
  Li  Li68  1  0.40143416  0.96560155  0.12456040  1
  Li  Li69  1  0.76916595  0.70106512  0.04210626  1
  Li  Li70  1  0.93189917  0.23083405  0.04210626  1
  Li  Li71  1  0.29893488  0.06810083  0.04210626  1
  Li  Li72  1  0.96560155  0.56416738  0.87543960  1
  Li  Li73  1  0.43583262  0.40143416  0.87543960  1
  Li  Li74  1  0.59856584  0.03439845  0.87543960  1
  Li  Li75  1  0.23083405  0.29893488  0.95789374  1
  Li  Li76  1  0.06810083  0.76916595  0.95789374  1
  Li  Li77  1  0.70106512  0.93189917  0.95789374  1
  Li  Li78  1  0.70106512  0.76916595  0.45789374  1
  Li  Li79  1  0.23083405  0.93189917  0.45789374  1
  Li  Li80  1  0.06810083  0.29893488  0.45789374  1
  Li  Li81  1  0.43583262  0.03439845  0.37543960  1
  Li  Li82  1  0.59856584  0.56416738  0.37543960  1
  Li  Li83  1  0.96560155  0.40143416  0.37543960  1
  Li  Li84  1  0.26170304  0.00000000  0.25000000  1
  Li  Li85  1  0.00000000  0.26170304  0.25000000  1
  Li  Li86  1  0.73829696  0.73829696  0.25000000  1
  Li  Li87  1  0.73829696  -0.00000000  0.75000000  1
  Li  Li88  1  0.00000000  0.73829696  0.75000000  1
  Li  Li89  1  0.26170304  0.26170304  0.75000000  1
  Li  Li90  1  0.92836971  0.33333333  0.58333333  1
  Li  Li91  1  0.66666667  0.59503638  0.58333333  1
  Li  Li92  1  0.40496362  0.07163029  0.58333333  1
  Li  Li93  1  0.40496362  0.33333333  0.08333333  1
  Li  Li94  1  0.66666667  0.07163029  0.08333333  1
  Li  Li95  1  0.92836971  0.59503638  0.08333333  1
  Li  Li96  1  0.59503638  0.66666667  0.91666667  1
  Li  Li97  1  0.33333333  0.92836971  0.91666667  1
  Li  Li98  1  0.07163029  0.40496362  0.91666667  1
  Li  Li99  1  0.07163029  0.66666667  0.41666667  1
  Li  Li100  1  0.33333333  0.40496362  0.41666667  1
  Li  Li101  1  0.59503638  0.92836971  0.41666667  1
  Li  Li102  1  0.39551287  0.00000000  0.25000000  1
  Li  Li103  1  0.00000000  0.39551287  0.25000000  1
  Li  Li104  1  0.60448713  0.60448713  0.25000000  1
  Li  Li105  1  0.60448713  0.00000000  0.75000000  1
  Li  Li106  1  0.00000000  0.60448713  0.75000000  1
  Li  Li107  1  0.39551287  0.39551287  0.75000000  1
  Li  Li108  1  0.06217953  0.33333333  0.58333333  1
  Li  Li109  1  0.66666667  0.72884620  0.58333333  1
  Li  Li110  1  0.27115380  0.93782047  0.58333333  1
  Li  Li111  1  0.27115380  0.33333333  0.08333333  1
  Li  Li112  1  0.66666667  0.93782047  0.08333333  1
  Li  Li113  1  0.06217953  0.72884620  0.08333333  1
  Li  Li114  1  0.72884620  0.66666667  0.91666667  1
  Li  Li115  1  0.33333333  0.06217953  0.91666667  1
  Li  Li116  1  0.93782047  0.27115380  0.91666667  1
  Li  Li117  1  0.93782047  0.66666667  0.41666667  1
  Li  Li118  1  0.33333333  0.27115380  0.41666667  1
  Li  Li119  1  0.72884620  0.06217953  0.41666667  1
  Li  Li120  1  0.00000000  0.00000000  0.25000000  1
  Li  Li121  1  0.00000000  0.00000000  0.75000000  1
  Li  Li122  1  0.66666667  0.33333333  0.58333333  1
  Li  Li123  1  0.66666667  0.33333333  0.08333333  1
  Li  Li124  1  0.33333333  0.66666667  0.91666667  1
  Li  Li125  1  0.33333333  0.66666667  0.41666667  1
  Li  Li126  1  0.85955364  0.00000000  0.25000000  1
  Li  Li127  1  0.00000000  0.85955364  0.25000000  1
  Li  Li128  1  0.14044636  0.14044636  0.25000000  1
  Li  Li129  1  0.14044636  0.00000000  0.75000000  1
  Li  Li130  1  0.00000000  0.14044636  0.75000000  1
  Li  Li131  1  0.85955364  0.85955364  0.75000000  1
  Li  Li132  1  0.52622031  0.33333333  0.58333333  1
  Li  Li133  1  0.66666667  0.19288697  0.58333333  1
  Li  Li134  1  0.80711303  0.47377969  0.58333333  1
  Li  Li135  1  0.80711303  0.33333333  0.08333333  1
  Li  Li136  1  0.66666667  0.47377969  0.08333333  1
  Li  Li137  1  0.52622031  0.19288697  0.08333333  1
  Li  Li138  1  0.19288697  0.66666667  0.91666667  1
  Li  Li139  1  0.33333333  0.52622031  0.91666667  1
  Li  Li140  1  0.47377969  0.80711303  0.91666667  1
  Li  Li141  1  0.47377969  0.66666667  0.41666667  1
  Li  Li142  1  0.33333333  0.80711303  0.41666667  1
  Li  Li143  1  0.19288697  0.52622031  0.41666667  1
  Te  Te144  1  0.50000000  0.00000000  -0.00000000  1
  Te  Te145  1  0.00000000  0.50000000  0.00000000  1
  Te  Te146  1  0.50000000  0.50000000  0.00000000  1
  Te  Te147  1  0.00000000  0.50000000  0.50000000  1
  Te  Te148  1  0.50000000  0.00000000  0.50000000  1
  Te  Te149  1  0.50000000  0.50000000  0.50000000  1
  Te  Te150  1  0.16666667  0.33333333  0.33333333  1
  Te  Te151  1  0.66666667  0.83333333  0.33333333  1
  Te  Te152  1  0.16666667  0.83333333  0.33333333  1
  Te  Te153  1  0.66666667  0.83333333  0.83333333  1
  Te  Te154  1  0.16666667  0.33333333  0.83333333  1
  Te  Te155  1  0.16666667  0.83333333  0.83333333  1
  Te  Te156  1  0.83333333  0.66666667  0.66666667  1
  Te  Te157  1  0.33333333  0.16666667  0.66666667  1
  Te  Te158  1  0.83333333  0.16666667  0.66666667  1
  Te  Te159  1  0.33333333  0.16666667  0.16666667  1
  Te  Te160  1  0.83333333  0.66666667  0.16666667  1
  Te  Te161  1  0.83333333  0.16666667  0.16666667  1
  Te  Te162  1  0.00000000  0.00000000  0.00000000  1
  Te  Te163  1  0.00000000  0.00000000  0.50000000  1
  Te  Te164  1  0.66666667  0.33333333  0.33333333  1
  Te  Te165  1  0.66666667  0.33333333  0.83333333  1
  Te  Te166  1  0.33333333  0.66666667  0.66666667  1
  Te  Te167  1  0.33333333  0.66666667  0.16666667  1
