# generated using pymatgen
data_Li2Y2MoP3
_symmetry_space_group_name_H-M   'P 1'
_cell_length_a   4.27791093
_cell_length_b   4.56846848
_cell_length_c   6.87397215
_cell_angle_alpha   96.07364981
_cell_angle_beta   103.22714660
_cell_angle_gamma   114.39543736
_symmetry_Int_Tables_number   1
_chemical_formula_structural   Li2Y2MoP3
_chemical_formula_sum   'Li2 Y2 Mo1 P3'
_cell_volume   116.02125005
_cell_formula_units_Z   1
loop_
 _symmetry_equiv_pos_site_id
 _symmetry_equiv_pos_as_xyz
  1  'x, y, z'
loop_
 _atom_site_type_symbol
 _atom_site_label
 _atom_site_symmetry_multiplicity
 _atom_site_fract_x
 _atom_site_fract_y
 _atom_site_fract_z
 _atom_site_occupancy
  P  P0  1  0.00000000  0.00000000  0.00000000  1
  P  P1  1  0.33300000  0.66700000  0.25000000  1
  P  P2  1  0.66700000  0.33300000  0.50000000  1
  Mo  Mo3  1  0.00000000  0.00000000  0.75000000  1
  Li  Li4  1  0.87872266  0.16001395  0.48031896  1
  Li  Li5  1  0.28225469  0.55879488  0.19560642  1
  Y  Y6  1  0.69746906  0.27077409  0.06945549  1
  Y  Y7  1  0.64907669  0.92775022  0.61430988  1
