# generated using pymatgen
data_Li4TeF2
_symmetry_space_group_name_H-M   'P 1'
_cell_length_a   12.76946559
_cell_length_b   12.76946559
_cell_length_c   16.38467004
_cell_angle_alpha   90.00000000
_cell_angle_beta   90.00000000
_cell_angle_gamma   90.00000000
_symmetry_Int_Tables_number   1
_chemical_formula_structural   Li4TeF2
_chemical_formula_sum   'Li96 Te24 F48'
_cell_volume   2671.67203267
_cell_formula_units_Z   24
loop_
 _symmetry_equiv_pos_site_id
 _symmetry_equiv_pos_as_xyz
  1  'x, y, z'
loop_
 _atom_site_type_symbol
 _atom_site_label
 _atom_site_symmetry_multiplicity
 _atom_site_fract_x
 _atom_site_fract_y
 _atom_site_fract_z
 _atom_site_occupancy
  F  F0  1  0.71397660  0.66557125  0.88683605  1
  F  F1  1  -0.21397660  -0.66557125  1.38683605  1
  F  F2  1  -0.41557125  1.46397660  1.13683605  1
  F  F3  1  0.91557125  -0.46397660  1.63683605  1
  F  F4  1  -0.21397660  0.66557125  -0.88683605  1
  F  F5  1  0.71397660  -0.66557125  -0.38683605  1
  F  F6  1  0.91557125  1.46397660  -0.13683605  1
  F  F7  1  -0.41557125  -0.46397660  -0.63683605  1
  F  F8  1  -0.71397660  -0.66557125  -0.88683605  1
  F  F9  1  1.21397660  0.66557125  -0.38683605  1
  F  F10  1  1.41557125  -0.46397660  -0.13683605  1
  F  F11  1  0.08442875  1.46397660  -0.63683605  1
  F  F12  1  1.21397660  -0.66557125  0.88683605  1
  F  F13  1  -0.71397660  0.66557125  1.38683605  1
  F  F14  1  0.08442875  -0.46397660  1.13683605  1
  F  F15  1  1.41557125  1.46397660  1.63683605  1
  F  F16  1  1.21397660  1.16557125  1.38683605  1
  F  F17  1  0.28602340  -0.16557125  1.88683605  1
  F  F18  1  0.08442875  1.96397660  1.63683605  1
  F  F19  1  1.41557125  0.03602340  2.13683605  1
  F  F20  1  0.28602340  1.16557125  -0.38683605  1
  F  F21  1  1.21397660  -0.16557125  0.11316395  1
  F  F22  1  1.41557125  1.96397660  0.36316395  1
  F  F23  1  0.08442875  0.03602340  -0.13683605  1
  F  F24  1  -0.21397660  -0.16557125  -0.38683605  1
  F  F25  1  1.71397660  1.16557125  0.11316395  1
  F  F26  1  1.91557125  0.03602340  0.36316395  1
  F  F27  1  0.58442875  1.96397660  -0.13683605  1
  F  F28  1  1.71397660  -0.16557125  1.38683605  1
  F  F29  1  -0.21397660  1.16557125  1.88683605  1
  F  F30  1  0.58442875  0.03602340  1.63683605  1
  F  F31  1  1.91557125  1.96397660  2.13683605  1
  F  F32  1  0.11157862  0.36157862  0.12500000  1
  F  F33  1  0.38842138  0.63842138  0.62500000  1
  F  F34  1  0.88842138  0.86157862  0.37500000  1
  F  F35  1  0.61157862  0.13842138  0.87500000  1
  F  F36  1  0.88842138  0.63842138  0.87500000  1
  F  F37  1  0.61157862  0.36157862  0.37500000  1
  F  F38  1  0.11157862  0.13842138  0.62500000  1
  F  F39  1  0.38842138  0.86157862  0.12500000  1
  F  F40  1  0.61157862  0.86157862  0.62500000  1
  F  F41  1  0.88842138  0.13842138  0.12500000  1
  F  F42  1  0.38842138  0.36157862  0.87500000  1
  F  F43  1  0.11157862  0.63842138  0.37500000  1
  F  F44  1  0.38842138  0.13842138  0.37500000  1
  F  F45  1  0.11157862  0.86157862  0.87500000  1
  F  F46  1  0.61157862  0.63842138  0.12500000  1
  F  F47  1  0.88842138  0.36157862  0.62500000  1
  Li  Li48  1  0.37169772  0.04232003  0.90189230  1
  Li  Li49  1  0.12830228  0.95767997  0.40189230  1
  Li  Li50  1  0.20767997  0.12169772  0.15189230  1
  Li  Li51  1  0.29232003  0.87830228  0.65189230  1
  Li  Li52  1  0.12830228  0.04232003  0.09810770  1
  Li  Li53  1  0.37169772  0.95767997  0.59810770  1
  Li  Li54  1  0.29232003  0.12169772  0.84810770  1
  Li  Li55  1  0.20767997  0.87830228  0.34810770  1
  Li  Li56  1  0.62830228  0.95767997  0.09810770  1
  Li  Li57  1  0.87169772  0.04232003  0.59810770  1
  Li  Li58  1  0.79232003  0.87830228  0.84810770  1
  Li  Li59  1  0.70767997  0.12169772  0.34810770  1
  Li  Li60  1  0.87169772  0.95767997  0.90189230  1
  Li  Li61  1  0.62830228  0.04232003  0.40189230  1
  Li  Li62  1  0.70767997  0.87830228  0.15189230  1
  Li  Li63  1  0.79232003  0.12169772  0.65189230  1
  Li  Li64  1  0.87169772  0.54232003  0.40189230  1
  Li  Li65  1  0.62830228  0.45767997  0.90189230  1
  Li  Li66  1  0.70767997  0.62169772  0.65189230  1
  Li  Li67  1  0.79232003  0.37830228  0.15189230  1
  Li  Li68  1  0.62830228  0.54232003  0.59810770  1
  Li  Li69  1  0.87169772  0.45767997  0.09810770  1
  Li  Li70  1  0.79232003  0.62169772  0.34810770  1
  Li  Li71  1  0.70767997  0.37830228  0.84810770  1
  Li  Li72  1  0.12830228  0.45767997  0.59810770  1
  Li  Li73  1  0.37169772  0.54232003  0.09810770  1
  Li  Li74  1  0.29232003  0.37830228  0.34810770  1
  Li  Li75  1  0.20767997  0.62169772  0.84810770  1
  Li  Li76  1  0.37169772  0.45767997  0.40189230  1
  Li  Li77  1  0.12830228  0.54232003  0.90189230  1
  Li  Li78  1  0.20767997  0.37830228  0.65189230  1
  Li  Li79  1  0.29232003  0.62169772  0.15189230  1
  Li  Li80  1  0.51315758  0.87971895  0.73689837  1
  Li  Li81  1  0.98684242  0.12028105  0.23689837  1
  Li  Li82  1  0.37028105  0.26315758  0.98689837  1
  Li  Li83  1  0.12971895  0.73684242  0.48689837  1
  Li  Li84  1  0.98684242  0.87971895  0.26310163  1
  Li  Li85  1  0.51315758  0.12028105  0.76310163  1
  Li  Li86  1  0.12971895  0.26315758  0.01310163  1
  Li  Li87  1  0.37028105  0.73684242  0.51310163  1
  Li  Li88  1  0.48684242  0.12028105  0.26310163  1
  Li  Li89  1  0.01315758  0.87971895  0.76310163  1
  Li  Li90  1  0.62971895  0.73684242  0.01310163  1
  Li  Li91  1  0.87028105  0.26315758  0.51310163  1
  Li  Li92  1  0.01315758  0.12028105  0.73689837  1
  Li  Li93  1  0.48684242  0.87971895  0.23689837  1
  Li  Li94  1  0.87028105  0.73684242  0.98689837  1
  Li  Li95  1  0.62971895  0.26315758  0.48689837  1
  Li  Li96  1  0.01315758  0.37971895  0.23689837  1
  Li  Li97  1  0.48684242  0.62028105  0.73689837  1
  Li  Li98  1  0.87028105  0.76315758  0.48689837  1
  Li  Li99  1  0.62971895  0.23684242  0.98689837  1
  Li  Li100  1  0.48684242  0.37971895  0.76310163  1
  Li  Li101  1  0.01315758  0.62028105  0.26310163  1
  Li  Li102  1  0.62971895  0.76315758  0.51310163  1
  Li  Li103  1  0.87028105  0.23684242  0.01310163  1
  Li  Li104  1  0.98684242  0.62028105  0.76310163  1
  Li  Li105  1  0.51315758  0.37971895  0.26310163  1
  Li  Li106  1  0.12971895  0.23684242  0.51310163  1
  Li  Li107  1  0.37028105  0.76315758  0.01310163  1
  Li  Li108  1  0.51315758  0.62028105  0.23689837  1
  Li  Li109  1  0.98684242  0.37971895  0.73689837  1
  Li  Li110  1  0.37028105  0.23684242  0.48689837  1
  Li  Li111  1  0.12971895  0.76315758  0.98689837  1
  Li  Li112  1  0.80591784  0.69287187  0.58827357  1
  Li  Li113  1  0.69408216  0.30712813  0.08827357  1
  Li  Li114  1  0.55712813  0.55591784  0.83827357  1
  Li  Li115  1  0.94287187  0.44408216  0.33827357  1
  Li  Li116  1  0.69408216  0.69287187  0.41172643  1
  Li  Li117  1  0.80591784  0.30712813  0.91172643  1
  Li  Li118  1  0.94287187  0.55591784  0.16172643  1
  Li  Li119  1  0.55712813  0.44408216  0.66172643  1
  Li  Li120  1  0.19408216  0.30712813  0.41172643  1
  Li  Li121  1  0.30591784  0.69287187  0.91172643  1
  Li  Li122  1  0.44287187  0.44408216  0.16172643  1
  Li  Li123  1  0.05712813  0.55591784  0.66172643  1
  Li  Li124  1  0.30591784  0.30712813  0.58827357  1
  Li  Li125  1  0.19408216  0.69287187  0.08827357  1
  Li  Li126  1  0.05712813  0.44408216  0.83827357  1
  Li  Li127  1  0.44287187  0.55591784  0.33827357  1
  Li  Li128  1  0.30591784  0.19287187  0.08827357  1
  Li  Li129  1  0.19408216  0.80712813  0.58827357  1
  Li  Li130  1  0.05712813  0.05591784  0.33827357  1
  Li  Li131  1  0.44287187  0.94408216  0.83827357  1
  Li  Li132  1  0.19408216  0.19287187  0.91172643  1
  Li  Li133  1  0.30591784  0.80712813  0.41172643  1
  Li  Li134  1  0.44287187  0.05591784  0.66172643  1
  Li  Li135  1  0.05712813  0.94408216  0.16172643  1
  Li  Li136  1  0.69408216  0.80712813  0.91172643  1
  Li  Li137  1  0.80591784  0.19287187  0.41172643  1
  Li  Li138  1  0.94287187  0.94408216  0.66172643  1
  Li  Li139  1  0.55712813  0.05591784  0.16172643  1
  Li  Li140  1  0.80591784  0.80712813  0.08827357  1
  Li  Li141  1  0.69408216  0.19287187  0.58827357  1
  Li  Li142  1  0.55712813  0.94408216  0.33827357  1
  Li  Li143  1  0.94287187  0.05591784  0.83827357  1
  Te  Te144  1  0.00000000  0.25000000  0.12500000  1
  Te  Te145  1  0.00000000  0.75000000  0.37500000  1
  Te  Te146  1  0.00000000  0.75000000  0.87500000  1
  Te  Te147  1  0.00000000  0.25000000  0.62500000  1
  Te  Te148  1  0.50000000  0.75000000  0.62500000  1
  Te  Te149  1  0.50000000  0.25000000  0.87500000  1
  Te  Te150  1  0.50000000  0.25000000  0.37500000  1
  Te  Te151  1  0.50000000  0.75000000  0.12500000  1
  Te  Te152  1  0.67095163  0.00000000  0.25000000  1
  Te  Te153  1  0.82904837  -0.00000000  0.75000000  1
  Te  Te154  1  0.25000000  0.42095163  0.50000000  1
  Te  Te155  1  0.25000000  0.57904837  -0.00000000  1
  Te  Te156  1  0.32904837  -0.00000000  0.75000000  1
  Te  Te157  1  0.17095163  -0.00000000  0.25000000  1
  Te  Te158  1  0.75000000  0.57904837  0.50000000  1
  Te  Te159  1  0.75000000  0.42095163  0.00000000  1
  Te  Te160  1  0.17095163  0.50000000  0.75000000  1
  Te  Te161  1  0.32904837  0.50000000  0.25000000  1
  Te  Te162  1  0.75000000  0.92095163  0.00000000  1
  Te  Te163  1  0.75000000  0.07904837  0.50000000  1
  Te  Te164  1  0.82904837  0.50000000  0.25000000  1
  Te  Te165  1  0.67095163  0.50000000  0.75000000  1
  Te  Te166  1  0.25000000  0.07904837  -0.00000000  1
  Te  Te167  1  0.25000000  0.92095163  0.50000000  1
