# generated using pymatgen
data_Li4TeF2
_symmetry_space_group_name_H-M   'P 1'
_cell_length_a   14.93544050
_cell_length_b   14.93544050
_cell_length_c   13.74065912
_cell_angle_alpha   90.00000000
_cell_angle_beta   90.00000000
_cell_angle_gamma   90.00000000
_symmetry_Int_Tables_number   1
_chemical_formula_structural   Li4TeF2
_chemical_formula_sum   'Li96 Te24 F48'
_cell_volume   3065.09287193
_cell_formula_units_Z   24
loop_
 _symmetry_equiv_pos_site_id
 _symmetry_equiv_pos_as_xyz
  1  'x, y, z'
loop_
 _atom_site_type_symbol
 _atom_site_label
 _atom_site_symmetry_multiplicity
 _atom_site_fract_x
 _atom_site_fract_y
 _atom_site_fract_z
 _atom_site_occupancy
  F  F0  1  0.66792510  0.71771280  0.72255376  1
  F  F1  1  -0.16792510  -0.71771280  1.22255376  1
  F  F2  1  -0.46771280  1.41792510  0.97255376  1
  F  F3  1  0.96771280  -0.41792510  1.47255376  1
  F  F4  1  -0.16792510  0.71771280  -0.22255376  1
  F  F5  1  0.66792510  -0.71771280  -0.72255376  1
  F  F6  1  0.96771280  1.41792510  -0.47255376  1
  F  F7  1  -0.46771280  -0.41792510  0.02744624  1
  F  F8  1  -0.66792510  -0.71771280  -0.72255376  1
  F  F9  1  1.16792510  0.71771280  -0.22255376  1
  F  F10  1  1.46771280  -0.41792510  0.02744624  1
  F  F11  1  0.03228720  1.41792510  -0.47255376  1
  F  F12  1  1.16792510  -0.71771280  1.22255376  1
  F  F13  1  -0.66792510  0.71771280  0.72255376  1
  F  F14  1  0.03228720  -0.41792510  1.47255376  1
  F  F15  1  1.46771280  1.41792510  0.97255376  1
  F  F16  1  1.16792510  1.21771280  1.22255376  1
  F  F17  1  0.33207490  -0.21771280  1.72255376  1
  F  F18  1  0.03228720  1.91792510  1.47255376  1
  F  F19  1  1.46771280  0.08207490  1.97255376  1
  F  F20  1  0.33207490  1.21771280  0.27744624  1
  F  F21  1  1.16792510  -0.21771280  -0.22255376  1
  F  F22  1  1.46771280  1.91792510  0.02744624  1
  F  F23  1  0.03228720  0.08207490  0.52744624  1
  F  F24  1  -0.16792510  -0.21771280  -0.22255376  1
  F  F25  1  1.66792510  1.21771280  0.27744624  1
  F  F26  1  1.96771280  0.08207490  0.52744624  1
  F  F27  1  0.53228720  1.91792510  0.02744624  1
  F  F28  1  1.66792510  -0.21771280  1.72255376  1
  F  F29  1  -0.16792510  1.21771280  1.22255376  1
  F  F30  1  0.53228720  0.08207490  1.97255376  1
  F  F31  1  1.96771280  1.91792510  1.47255376  1
  F  F32  1  0.00000000  0.02027229  0.01924644  1
  F  F33  1  0.50000000  0.97972771  0.51924644  1
  F  F34  1  0.22972771  0.75000000  0.26924644  1
  F  F35  1  0.27027229  0.25000000  0.76924644  1
  F  F36  1  0.50000000  0.02027229  0.48075356  1
  F  F37  1  0.00000000  0.97972771  0.98075356  1
  F  F38  1  0.27027229  0.75000000  0.23075356  1
  F  F39  1  0.22972771  0.25000000  0.73075356  1
  F  F40  1  0.50000000  0.52027229  0.51924644  1
  F  F41  1  0.00000000  0.47972771  0.01924644  1
  F  F42  1  0.72972771  0.25000000  0.76924644  1
  F  F43  1  0.77027229  0.75000000  0.26924644  1
  F  F44  1  0.00000000  0.52027229  0.98075356  1
  F  F45  1  0.50000000  0.47972771  0.48075356  1
  F  F46  1  0.77027229  0.25000000  0.73075356  1
  F  F47  1  0.72972771  0.75000000  0.23075356  1
  Li  Li48  1  0.30668187  0.32662212  0.80768753  1
  Li  Li49  1  0.19331813  0.67337788  0.30768753  1
  Li  Li50  1  0.92337788  0.05668187  0.05768753  1
  Li  Li51  1  0.57662212  0.94331813  0.55768753  1
  Li  Li52  1  0.19331813  0.32662212  0.69231247  1
  Li  Li53  1  0.30668187  0.67337788  0.19231247  1
  Li  Li54  1  0.57662212  0.05668187  0.44231247  1
  Li  Li55  1  0.92337788  0.94331813  0.94231247  1
  Li  Li56  1  0.69331813  0.67337788  0.19231247  1
  Li  Li57  1  0.80668187  0.32662212  0.69231247  1
  Li  Li58  1  0.07662212  0.94331813  0.94231247  1
  Li  Li59  1  0.42337788  0.05668187  0.44231247  1
  Li  Li60  1  0.80668187  0.67337788  0.30768753  1
  Li  Li61  1  0.69331813  0.32662212  0.80768753  1
  Li  Li62  1  0.42337788  0.94331813  0.55768753  1
  Li  Li63  1  0.07662212  0.05668187  0.05768753  1
  Li  Li64  1  0.80668187  0.82662212  0.30768753  1
  Li  Li65  1  0.69331813  0.17337788  0.80768753  1
  Li  Li66  1  0.42337788  0.55668187  0.55768753  1
  Li  Li67  1  0.07662212  0.44331813  0.05768753  1
  Li  Li68  1  0.69331813  0.82662212  0.19231247  1
  Li  Li69  1  0.80668187  0.17337788  0.69231247  1
  Li  Li70  1  0.07662212  0.55668187  0.94231247  1
  Li  Li71  1  0.42337788  0.44331813  0.44231247  1
  Li  Li72  1  0.19331813  0.17337788  0.69231247  1
  Li  Li73  1  0.30668187  0.82662212  0.19231247  1
  Li  Li74  1  0.57662212  0.44331813  0.44231247  1
  Li  Li75  1  0.92337788  0.55668187  0.94231247  1
  Li  Li76  1  0.30668187  0.17337788  0.80768753  1
  Li  Li77  1  0.19331813  0.82662212  0.30768753  1
  Li  Li78  1  0.92337788  0.44331813  0.05768753  1
  Li  Li79  1  0.57662212  0.55668187  0.55768753  1
  Li  Li80  1  0.88117774  0.99189885  0.55847978  1
  Li  Li81  1  0.61882226  0.00810115  0.05847978  1
  Li  Li82  1  0.25810115  0.63117774  0.80847978  1
  Li  Li83  1  0.24189885  0.36882226  0.30847978  1
  Li  Li84  1  0.61882226  0.99189885  0.94152022  1
  Li  Li85  1  0.88117774  0.00810115  0.44152022  1
  Li  Li86  1  0.24189885  0.63117774  0.69152022  1
  Li  Li87  1  0.25810115  0.36882226  0.19152022  1
  Li  Li88  1  0.11882226  0.00810115  0.44152022  1
  Li  Li89  1  0.38117774  0.99189885  0.94152022  1
  Li  Li90  1  0.74189885  0.36882226  0.19152022  1
  Li  Li91  1  0.75810115  0.63117774  0.69152022  1
  Li  Li92  1  0.38117774  0.00810115  0.05847978  1
  Li  Li93  1  0.11882226  0.99189885  0.55847978  1
  Li  Li94  1  0.75810115  0.36882226  0.30847978  1
  Li  Li95  1  0.74189885  0.63117774  0.80847978  1
  Li  Li96  1  0.38117774  0.49189885  0.05847978  1
  Li  Li97  1  0.11882226  0.50810115  0.55847978  1
  Li  Li98  1  0.75810115  0.13117774  0.30847978  1
  Li  Li99  1  0.74189885  0.86882226  0.80847978  1
  Li  Li100  1  0.11882226  0.49189885  0.44152022  1
  Li  Li101  1  0.38117774  0.50810115  0.94152022  1
  Li  Li102  1  0.74189885  0.13117774  0.19152022  1
  Li  Li103  1  0.75810115  0.86882226  0.69152022  1
  Li  Li104  1  0.61882226  0.50810115  0.94152022  1
  Li  Li105  1  0.88117774  0.49189885  0.44152022  1
  Li  Li106  1  0.24189885  0.86882226  0.69152022  1
  Li  Li107  1  0.25810115  0.13117774  0.19152022  1
  Li  Li108  1  0.88117774  0.50810115  0.55847978  1
  Li  Li109  1  0.61882226  0.49189885  0.05847978  1
  Li  Li110  1  0.25810115  0.86882226  0.80847978  1
  Li  Li111  1  0.24189885  0.13117774  0.30847978  1
  Li  Li112  1  0.43081435  0.33362172  0.38600576  1
  Li  Li113  1  0.06918565  0.66637828  0.88600576  1
  Li  Li114  1  0.91637828  0.18081435  0.63600576  1
  Li  Li115  1  0.58362172  0.81918565  0.13600576  1
  Li  Li116  1  0.06918565  0.33362172  0.11399424  1
  Li  Li117  1  0.43081435  0.66637828  0.61399424  1
  Li  Li118  1  0.58362172  0.18081435  0.86399424  1
  Li  Li119  1  0.91637828  0.81918565  0.36399424  1
  Li  Li120  1  0.56918565  0.66637828  0.61399424  1
  Li  Li121  1  0.93081435  0.33362172  0.11399424  1
  Li  Li122  1  0.08362172  0.81918565  0.36399424  1
  Li  Li123  1  0.41637828  0.18081435  0.86399424  1
  Li  Li124  1  0.93081435  0.66637828  0.88600576  1
  Li  Li125  1  0.56918565  0.33362172  0.38600576  1
  Li  Li126  1  0.41637828  0.81918565  0.13600576  1
  Li  Li127  1  0.08362172  0.18081435  0.63600576  1
  Li  Li128  1  0.93081435  0.83362172  0.88600576  1
  Li  Li129  1  0.56918565  0.16637828  0.38600576  1
  Li  Li130  1  0.41637828  0.68081435  0.13600576  1
  Li  Li131  1  0.08362172  0.31918565  0.63600576  1
  Li  Li132  1  0.56918565  0.83362172  0.61399424  1
  Li  Li133  1  0.93081435  0.16637828  0.11399424  1
  Li  Li134  1  0.08362172  0.68081435  0.36399424  1
  Li  Li135  1  0.41637828  0.31918565  0.86399424  1
  Li  Li136  1  0.06918565  0.16637828  0.11399424  1
  Li  Li137  1  0.43081435  0.83362172  0.61399424  1
  Li  Li138  1  0.58362172  0.31918565  0.86399424  1
  Li  Li139  1  0.91637828  0.68081435  0.36399424  1
  Li  Li140  1  0.43081435  0.16637828  0.38600576  1
  Li  Li141  1  0.06918565  0.83362172  0.88600576  1
  Li  Li142  1  0.91637828  0.31918565  0.63600576  1
  Li  Li143  1  0.58362172  0.68081435  0.13600576  1
  Te  Te144  1  0.00000000  0.00000000  0.50000000  1
  Te  Te145  1  0.50000000  0.00000000  0.00000000  1
  Te  Te146  1  0.25000000  0.75000000  0.75000000  1
  Te  Te147  1  0.25000000  0.25000000  0.25000000  1
  Te  Te148  1  0.50000000  0.50000000  0.00000000  1
  Te  Te149  1  0.00000000  0.50000000  0.50000000  1
  Te  Te150  1  0.75000000  0.25000000  0.25000000  1
  Te  Te151  1  0.75000000  0.75000000  0.75000000  1
  Te  Te152  1  0.00000000  0.25000000  0.37500000  1
  Te  Te153  1  0.00000000  0.75000000  0.62500000  1
  Te  Te154  1  0.50000000  0.75000000  0.87500000  1
  Te  Te155  1  0.50000000  0.25000000  0.12500000  1
  Te  Te156  1  0.00000000  0.25000000  0.01206211  1
  Te  Te157  1  0.00000000  0.75000000  0.26206211  1
  Te  Te158  1  0.50000000  0.25000000  0.48793789  1
  Te  Te159  1  0.50000000  0.75000000  0.23793789  1
  Te  Te160  1  0.50000000  0.75000000  0.51206211  1
  Te  Te161  1  0.50000000  0.25000000  0.76206211  1
  Te  Te162  1  0.00000000  0.75000000  0.98793789  1
  Te  Te163  1  0.00000000  0.25000000  0.73793789  1
  Te  Te164  1  0.00000000  0.75000000  0.12500000  1
  Te  Te165  1  0.50000000  0.75000000  0.37500000  1
  Te  Te166  1  0.50000000  0.25000000  0.62500000  1
  Te  Te167  1  0.00000000  0.25000000  0.87500000  1
