# generated using pymatgen
data_Li2YMo2AsP3
_symmetry_space_group_name_H-M   'P 1'
_cell_length_a   5.97756998
_cell_length_b   5.99373814
_cell_length_c   7.32704048
_cell_angle_alpha   93.52522796
_cell_angle_beta   97.30494579
_cell_angle_gamma   101.40136482
_symmetry_Int_Tables_number   1
_chemical_formula_structural   Li2YMo2AsP3
_chemical_formula_sum   'Li2 Y1 Mo2 As1 P3'
_cell_volume   254.22920640
_cell_formula_units_Z   1
loop_
 _symmetry_equiv_pos_site_id
 _symmetry_equiv_pos_as_xyz
  1  'x, y, z'
loop_
 _atom_site_type_symbol
 _atom_site_label
 _atom_site_symmetry_multiplicity
 _atom_site_fract_x
 _atom_site_fract_y
 _atom_site_fract_z
 _atom_site_occupancy
  Y  Y0  1  0.12500000  0.00000000  0.25000000  1
  P  P1  1  0.00000000  0.00000000  0.00000000  1
  P  P2  1  0.37500000  0.00000000  0.25000000  1
  P  P3  1  0.25000000  0.25000000  0.25000000  1
  Mo  Mo4  1  0.00000000  0.25000000  0.12500000  1
  Mo  Mo5  1  0.20828604  0.98983350  0.72267937  1
  As  As6  1  0.61507327  0.45920358  0.59981018  1
  Li  Li7  1  0.78020840  0.88359703  0.33875048  1
  Li  Li8  1  0.57405558  0.05135559  0.97424950  1
