# generated using pymatgen
data_LiY2Sb2PSe
_symmetry_space_group_name_H-M   'P 1'
_cell_length_a   5.07735998
_cell_length_b   5.14388029
_cell_length_c   6.05086088
_cell_angle_alpha   93.64996774
_cell_angle_beta   94.13875510
_cell_angle_gamma   98.68519979
_symmetry_Int_Tables_number   1
_chemical_formula_structural   LiY2Sb2PSe
_chemical_formula_sum   'Li1 Y2 Sb2 P1 Se1'
_cell_volume   155.36662834
_cell_formula_units_Z   1
loop_
 _symmetry_equiv_pos_site_id
 _symmetry_equiv_pos_as_xyz
  1  'x, y, z'
loop_
 _atom_site_type_symbol
 _atom_site_label
 _atom_site_symmetry_multiplicity
 _atom_site_fract_x
 _atom_site_fract_y
 _atom_site_fract_z
 _atom_site_occupancy
  Se  Se0  1  0.00000000  0.00000000  0.00000000  1
  Y  Y1  1  0.50000000  0.50000000  0.50000000  1
  Y  Y2  1  0.50000000  0.50000000  0.00000000  1
  P  P3  1  0.50000000  0.00000000  0.50000000  1
  Li  Li4  1  0.00000000  0.50000000  0.50000000  1
  Sb  Sb5  1  0.10834787  0.89407267  0.38088789  1
  Sb  Sb6  1  0.41091509  0.04772238  0.13509075  1
