# generated using pymatgen
data_LiF
_symmetry_space_group_name_H-M   'P 1'
_cell_length_a   13.37451877
_cell_length_b   13.37451877
_cell_length_c   3.51790615
_cell_angle_alpha   90.00000000
_cell_angle_beta   90.00000000
_cell_angle_gamma   120.00000000
_symmetry_Int_Tables_number   1
_chemical_formula_structural   LiF
_chemical_formula_sum   'Li24 F24'
_cell_volume   544.96826106
_cell_formula_units_Z   24
loop_
 _symmetry_equiv_pos_site_id
 _symmetry_equiv_pos_as_xyz
  1  'x, y, z'
loop_
 _atom_site_type_symbol
 _atom_site_label
 _atom_site_symmetry_multiplicity
 _atom_site_fract_x
 _atom_site_fract_y
 _atom_site_fract_z
 _atom_site_occupancy
  F  F0  1  0.76211477  0.07772381  0.50000000  1
  F  F1  1  0.92227619  0.68439096  0.50000000  1
  F  F2  1  0.31560904  0.23788523  0.50000000  1
  F  F3  1  0.07772381  0.76211477  0.50000000  1
  F  F4  1  0.68439096  0.92227619  0.50000000  1
  F  F5  1  0.23788523  0.31560904  0.50000000  1
  F  F6  1  0.00000000  0.00000000  0.41060968  1
  F  F7  1  0.00000000  0.00000000  0.58939032  1
  F  F8  1  0.13629122  0.00000000  0.59291023  1
  F  F9  1  0.00000000  0.13629122  0.59291023  1
  F  F10  1  0.86370878  0.86370878  0.59291023  1
  F  F11  1  0.13629122  0.00000000  0.40708977  1
  F  F12  1  0.00000000  0.13629122  0.40708977  1
  F  F13  1  0.86370878  0.86370878  0.40708977  1
  F  F14  1  0.33333333  0.66666667  0.00000000  1
  F  F15  1  0.66666667  0.33333333  0.00000000  1
  F  F16  1  0.18766833  0.65268314  0.00000000  1
  F  F17  1  0.34731686  0.53498519  0.00000000  1
  F  F18  1  0.46501481  0.81233167  -0.00000000  1
  F  F19  1  0.65268314  0.18766833  0.00000000  1
  F  F20  1  0.53498519  0.34731686  0.00000000  1
  F  F21  1  0.81233167  0.46501481  0.00000000  1
  F  F22  1  0.00000000  0.00000000  0.75643604  1
  F  F23  1  0.00000000  0.00000000  0.24356396  1
  Li  Li24  1  0.63148125  0.71661178  -0.00000000  1
  Li  Li25  1  0.28338822  0.91486947  -0.00000000  1
  Li  Li26  1  0.08513053  0.36851875  0.00000000  1
  Li  Li27  1  0.71661178  0.63148125  -0.00000000  1
  Li  Li28  1  0.91486947  0.28338822  0.00000000  1
  Li  Li29  1  0.36851875  0.08513053  0.00000000  1
  Li  Li30  1  0.21677436  0.00000000  0.22748209  1
  Li  Li31  1  0.00000000  0.21677436  0.22748209  1
  Li  Li32  1  0.78322564  0.78322564  0.22748209  1
  Li  Li33  1  0.21677436  0.00000000  0.77251791  1
  Li  Li34  1  0.00000000  0.21677436  0.77251791  1
  Li  Li35  1  0.78322564  0.78322564  0.77251791  1
  Li  Li36  1  0.12011831  0.51510384  0.50000000  1
  Li  Li37  1  0.48489616  0.60501447  0.50000000  1
  Li  Li38  1  0.39498553  0.87988169  0.50000000  1
  Li  Li39  1  0.51510384  0.12011831  0.50000000  1
  Li  Li40  1  0.60501447  0.48489616  0.50000000  1
  Li  Li41  1  0.87988169  0.39498553  0.50000000  1
  Li  Li42  1  0.13299481  0.56020344  0.00000000  1
  Li  Li43  1  0.43979656  0.57279136  0.00000000  1
  Li  Li44  1  0.42720864  0.86700519  -0.00000000  1
  Li  Li45  1  0.56020344  0.13299481  0.00000000  1
  Li  Li46  1  0.57279136  0.43979656  0.00000000  1
  Li  Li47  1  0.86700519  0.42720864  -0.00000000  1
