# generated using pymatgen
data_LiYAs2P
_symmetry_space_group_name_H-M   'P 1'
_cell_length_a   4.68996085
_cell_length_b   4.75808901
_cell_length_c   6.81196619
_cell_angle_alpha   95.25703469
_cell_angle_beta   101.44872865
_cell_angle_gamma   111.11541900
_symmetry_Int_Tables_number   1
_chemical_formula_structural   LiYAs2P
_chemical_formula_sum   'Li2 Y2 As4 P2'
_cell_volume   136.75261071
_cell_formula_units_Z   2
loop_
 _symmetry_equiv_pos_site_id
 _symmetry_equiv_pos_as_xyz
  1  'x, y, z'
loop_
 _atom_site_type_symbol
 _atom_site_label
 _atom_site_symmetry_multiplicity
 _atom_site_fract_x
 _atom_site_fract_y
 _atom_site_fract_z
 _atom_site_occupancy
  P  P0  1  0.12500000  0.12500000  0.12500000  1
  P  P1  1  0.50000000  0.50000000  0.50000000  1
  As  As2  1  0.25000000  0.25000000  0.25000000  1
  As  As3  1  0.75000000  0.75000000  0.75000000  1
  As  As4  1  0.26093134  0.97116126  0.83338707  1
  As  As5  1  0.73827481  0.84986460  0.86261966  1
  Li  Li6  1  0.84525701  0.82997405  0.09179919  1
  Li  Li7  1  0.94355650  0.84142944  0.60450250  1
  Y  Y8  1  0.98011819  0.22038498  0.40404382  1
  Y  Y9  1  0.93349313  0.59802779  0.30729414  1
