# generated using pymatgen
data_LiCaF3
_symmetry_space_group_name_H-M   'P 1'
_cell_length_a   12.23885452
_cell_length_b   12.23885452
_cell_length_c   12.10250604
_cell_angle_alpha   90.00000000
_cell_angle_beta   90.00000000
_cell_angle_gamma   120.00000000
_symmetry_Int_Tables_number   1
_chemical_formula_structural   LiCaF3
_chemical_formula_sum   'Li18 Ca18 F54'
_cell_volume   1569.95601368
_cell_formula_units_Z   18
loop_
 _symmetry_equiv_pos_site_id
 _symmetry_equiv_pos_as_xyz
  1  'x, y, z'
loop_
 _atom_site_type_symbol
 _atom_site_label
 _atom_site_symmetry_multiplicity
 _atom_site_fract_x
 _atom_site_fract_y
 _atom_site_fract_z
 _atom_site_occupancy
  Ca  Ca0  1  0.88317684  0.00000000  0.78912437  1
  Ca  Ca1  1  0.00000000  0.88317684  0.78912437  1
  Ca  Ca2  1  0.11682316  0.11682316  0.78912437  1
  Ca  Ca3  1  0.88317684  0.00000000  0.21087563  1
  Ca  Ca4  1  0.00000000  0.88317684  0.21087563  1
  Ca  Ca5  1  0.11682316  0.11682316  0.21087563  1
  Ca  Ca6  1  0.27891046  0.47344457  0.91871098  1
  Ca  Ca7  1  -0.47344457  -0.19453412  0.91871098  1
  Ca  Ca8  1  0.19453412  -0.27891046  0.91871098  1
  Ca  Ca9  1  0.27891046  0.47344457  -0.91871098  1
  Ca  Ca10  1  -0.47344457  -0.19453412  -0.91871098  1
  Ca  Ca11  1  0.19453412  -0.27891046  -0.91871098  1
  Ca  Ca12  1  0.47344457  0.27891046  -0.91871098  1
  Ca  Ca13  1  -0.19453412  -0.47344457  -0.91871098  1
  Ca  Ca14  1  -0.27891046  0.19453412  -0.91871098  1
  Ca  Ca15  1  0.47344457  0.27891046  0.91871098  1
  Ca  Ca16  1  -0.19453412  -0.47344457  0.91871098  1
  Ca  Ca17  1  -0.27891046  0.19453412  0.91871098  1
  F  F18  1  0.84249892  0.12909542  0.70016986  1
  F  F19  1  0.87090458  0.71340349  0.70016986  1
  F  F20  1  0.28659651  0.15750108  0.70016986  1
  F  F21  1  0.84249892  0.12909542  0.29983014  1
  F  F22  1  0.87090458  0.71340349  0.29983014  1
  F  F23  1  0.28659651  0.15750108  0.29983014  1
  F  F24  1  0.12909542  0.84249892  0.29983014  1
  F  F25  1  0.71340349  0.87090458  0.29983014  1
  F  F26  1  0.15750108  0.28659651  0.29983014  1
  F  F27  1  0.12909542  0.84249892  0.70016986  1
  F  F28  1  0.71340349  0.87090458  0.70016986  1
  F  F29  1  0.15750108  0.28659651  0.70016986  1
  F  F30  1  0.37420806  0.00000000  0.83565818  1
  F  F31  1  0.00000000  0.37420806  0.83565818  1
  F  F32  1  0.62579194  0.62579194  0.83565818  1
  F  F33  1  0.37420806  0.00000000  0.16434182  1
  F  F34  1  0.00000000  0.37420806  0.16434182  1
  F  F35  1  0.62579194  0.62579194  0.16434182  1
  F  F36  1  0.20373466  0.49077320  0.27348598  1
  F  F37  1  0.50922680  0.71296146  0.27348598  1
  F  F38  1  0.28703854  0.79626534  0.27348598  1
  F  F39  1  0.20373466  0.49077320  0.72651402  1
  F  F40  1  0.50922680  0.71296146  0.72651402  1
  F  F41  1  0.28703854  0.79626534  0.72651402  1
  F  F42  1  0.49077320  0.20373466  0.72651402  1
  F  F43  1  0.71296146  0.50922680  0.72651402  1
  F  F44  1  0.79626534  0.28703854  0.72651402  1
  F  F45  1  0.49077320  0.20373466  0.27348598  1
  F  F46  1  0.71296146  0.50922680  0.27348598  1
  F  F47  1  0.79626534  0.28703854  0.27348598  1
  F  F48  1  0.00000000  0.00000000  0.00000000  1
  F  F49  1  0.33333333  0.66666667  0.50000000  1
  F  F50  1  0.66666667  0.33333333  0.50000000  1
  F  F51  1  0.03817950  0.16899482  0.63698990  1
  F  F52  1  0.83100518  0.86918468  0.63698990  1
  F  F53  1  0.13081532  0.96182050  0.63698990  1
  F  F54  1  0.03817950  0.16899482  0.36301010  1
  F  F55  1  0.83100518  0.86918468  0.36301010  1
  F  F56  1  0.13081532  0.96182050  0.36301010  1
  F  F57  1  0.16899482  0.03817950  0.36301010  1
  F  F58  1  0.86918468  0.83100518  0.36301010  1
  F  F59  1  0.96182050  0.13081532  0.36301010  1
  F  F60  1  0.16899482  0.03817950  0.63698990  1
  F  F61  1  0.86918468  0.83100518  0.63698990  1
  F  F62  1  0.96182050  0.13081532  0.63698990  1
  F  F63  1  0.41384411  0.28638671  0.50000000  1
  F  F64  1  0.71361329  0.12745740  0.50000000  1
  F  F65  1  0.87254260  0.58615589  0.50000000  1
  F  F66  1  0.28638671  0.41384411  0.50000000  1
  F  F67  1  0.12745740  0.71361329  0.50000000  1
  F  F68  1  0.58615589  0.87254260  0.50000000  1
  F  F69  1  0.31307769  0.00000000  -0.00000000  1
  F  F70  1  0.00000000  0.31307769  -0.00000000  1
  F  F71  1  0.68692231  0.68692231  0.00000000  1
  Li  Li72  1  0.84952152  0.78395570  0.23717132  1
  Li  Li73  1  0.21604430  0.06556582  0.23717132  1
  Li  Li74  1  0.93443418  0.15047848  0.23717132  1
  Li  Li75  1  0.84952152  0.78395570  0.76282868  1
  Li  Li76  1  0.21604430  0.06556582  0.76282868  1
  Li  Li77  1  0.93443418  0.15047848  0.76282868  1
  Li  Li78  1  0.78395570  0.84952152  0.76282868  1
  Li  Li79  1  0.06556582  0.21604430  0.76282868  1
  Li  Li80  1  0.15047848  0.93443418  0.76282868  1
  Li  Li81  1  0.78395570  0.84952152  0.23717132  1
  Li  Li82  1  0.06556582  0.21604430  0.23717132  1
  Li  Li83  1  0.15047848  0.93443418  0.23717132  1
  Li  Li84  1  0.67441287  -0.00000000  0.50000000  1
  Li  Li85  1  0.00000000  0.67441287  0.50000000  1
  Li  Li86  1  0.32558713  0.32558713  0.50000000  1
  Li  Li87  1  0.60966776  0.00000000  0.00000000  1
  Li  Li88  1  0.00000000  0.60966776  0.00000000  1
  Li  Li89  1  0.39033224  0.39033224  -0.00000000  1
