# generated using pymatgen
data_Li4TeF2
_symmetry_space_group_name_H-M   'P 1'
_cell_length_a   16.82303385
_cell_length_b   16.82303385
_cell_length_c   11.51978307
_cell_angle_alpha   90.00000000
_cell_angle_beta   90.00000000
_cell_angle_gamma   90.00000000
_symmetry_Int_Tables_number   1
_chemical_formula_structural   Li4TeF2
_chemical_formula_sum   'Li96 Te24 F48'
_cell_volume   3260.26527789
_cell_formula_units_Z   24
loop_
 _symmetry_equiv_pos_site_id
 _symmetry_equiv_pos_as_xyz
  1  'x, y, z'
loop_
 _atom_site_type_symbol
 _atom_site_label
 _atom_site_symmetry_multiplicity
 _atom_site_fract_x
 _atom_site_fract_y
 _atom_site_fract_z
 _atom_site_occupancy
  F  F0  1  0.14372695  0.62249754  0.62626557  1
  F  F1  1  0.35627305  -0.62249754  1.12626557  1
  F  F2  1  -0.37249754  0.89372695  0.87626557  1
  F  F3  1  0.87249754  0.10627305  1.37626557  1
  F  F4  1  0.35627305  0.62249754  -0.62626557  1
  F  F5  1  0.14372695  -0.62249754  -0.12626557  1
  F  F6  1  0.87249754  0.89372695  0.12373443  1
  F  F7  1  -0.37249754  0.10627305  -0.37626557  1
  F  F8  1  -0.14372695  -0.62249754  -0.62626557  1
  F  F9  1  0.64372695  0.62249754  -0.12626557  1
  F  F10  1  1.37249754  0.10627305  0.12373443  1
  F  F11  1  0.12750246  0.89372695  -0.37626557  1
  F  F12  1  0.64372695  -0.62249754  0.62626557  1
  F  F13  1  -0.14372695  0.62249754  1.12626557  1
  F  F14  1  0.12750246  0.10627305  0.87626557  1
  F  F15  1  1.37249754  0.89372695  1.37626557  1
  F  F16  1  0.64372695  1.12249754  1.12626557  1
  F  F17  1  0.85627305  -0.12249754  1.62626557  1
  F  F18  1  0.12750246  1.39372695  1.37626557  1
  F  F19  1  1.37249754  0.60627305  1.87626557  1
  F  F20  1  0.85627305  1.12249754  -0.12626557  1
  F  F21  1  0.64372695  -0.12249754  0.37373443  1
  F  F22  1  1.37249754  1.39372695  0.62373443  1
  F  F23  1  0.12750246  0.60627305  0.12373443  1
  F  F24  1  0.35627305  -0.12249754  -0.12626557  1
  F  F25  1  1.14372695  1.12249754  0.37373443  1
  F  F26  1  1.87249754  0.60627305  0.62373443  1
  F  F27  1  0.62750246  1.39372695  0.12373443  1
  F  F28  1  1.14372695  -0.12249754  1.12626557  1
  F  F29  1  0.35627305  1.12249754  1.62626557  1
  F  F30  1  0.62750246  0.60627305  1.37626557  1
  F  F31  1  1.87249754  1.39372695  1.87626557  1
  F  F32  1  0.88055220  -0.00000000  0.25000000  1
  F  F33  1  0.61944780  0.00000000  0.75000000  1
  F  F34  1  0.25000000  0.63055220  0.50000000  1
  F  F35  1  0.25000000  0.36944780  -0.00000000  1
  F  F36  1  0.11944780  -0.00000000  0.75000000  1
  F  F37  1  0.38055220  -0.00000000  0.25000000  1
  F  F38  1  0.75000000  0.36944780  0.50000000  1
  F  F39  1  0.75000000  0.63055220  -0.00000000  1
  F  F40  1  0.38055220  0.50000000  0.75000000  1
  F  F41  1  0.11944780  0.50000000  0.25000000  1
  F  F42  1  0.75000000  0.13055220  -0.00000000  1
  F  F43  1  0.75000000  0.86944780  0.50000000  1
  F  F44  1  0.61944780  0.50000000  0.25000000  1
  F  F45  1  0.88055220  0.50000000  0.75000000  1
  F  F46  1  0.25000000  0.86944780  -0.00000000  1
  F  F47  1  0.25000000  0.13055220  0.50000000  1
  Li  Li48  1  0.16914551  0.26760370  0.89885648  1
  Li  Li49  1  0.33085449  0.73239630  0.39885648  1
  Li  Li50  1  0.98239630  0.91914551  0.14885648  1
  Li  Li51  1  0.51760370  0.08085449  0.64885648  1
  Li  Li52  1  0.33085449  0.26760370  0.10114352  1
  Li  Li53  1  0.16914551  0.73239630  0.60114352  1
  Li  Li54  1  0.51760370  0.91914551  0.85114352  1
  Li  Li55  1  0.98239630  0.08085449  0.35114352  1
  Li  Li56  1  0.83085449  0.73239630  0.10114352  1
  Li  Li57  1  0.66914551  0.26760370  0.60114352  1
  Li  Li58  1  0.01760370  0.08085449  0.85114352  1
  Li  Li59  1  0.48239630  0.91914551  0.35114352  1
  Li  Li60  1  0.66914551  0.73239630  0.89885648  1
  Li  Li61  1  0.83085449  0.26760370  0.39885648  1
  Li  Li62  1  0.48239630  0.08085449  0.14885648  1
  Li  Li63  1  0.01760370  0.91914551  0.64885648  1
  Li  Li64  1  0.66914551  0.76760370  0.39885648  1
  Li  Li65  1  0.83085449  0.23239630  0.89885648  1
  Li  Li66  1  0.48239630  0.41914551  0.64885648  1
  Li  Li67  1  0.01760370  0.58085449  0.14885648  1
  Li  Li68  1  0.83085449  0.76760370  0.60114352  1
  Li  Li69  1  0.66914551  0.23239630  0.10114352  1
  Li  Li70  1  0.01760370  0.41914551  0.35114352  1
  Li  Li71  1  0.48239630  0.58085449  0.85114352  1
  Li  Li72  1  0.33085449  0.23239630  0.60114352  1
  Li  Li73  1  0.16914551  0.76760370  0.10114352  1
  Li  Li74  1  0.51760370  0.58085449  0.35114352  1
  Li  Li75  1  0.98239630  0.41914551  0.85114352  1
  Li  Li76  1  0.16914551  0.23239630  0.39885648  1
  Li  Li77  1  0.33085449  0.76760370  0.89885648  1
  Li  Li78  1  0.98239630  0.58085449  0.64885648  1
  Li  Li79  1  0.51760370  0.41914551  0.14885648  1
  Li  Li80  1  0.33937346  0.15874990  0.89923998  1
  Li  Li81  1  0.16062654  0.84125010  0.39923998  1
  Li  Li82  1  0.09125010  0.08937346  0.14923998  1
  Li  Li83  1  0.40874990  0.91062654  0.64923998  1
  Li  Li84  1  0.16062654  0.15874990  0.10076002  1
  Li  Li85  1  0.33937346  0.84125010  0.60076002  1
  Li  Li86  1  0.40874990  0.08937346  0.85076002  1
  Li  Li87  1  0.09125010  0.91062654  0.35076002  1
  Li  Li88  1  0.66062654  0.84125010  0.10076002  1
  Li  Li89  1  0.83937346  0.15874990  0.60076002  1
  Li  Li90  1  0.90874990  0.91062654  0.85076002  1
  Li  Li91  1  0.59125010  0.08937346  0.35076002  1
  Li  Li92  1  0.83937346  0.84125010  0.89923998  1
  Li  Li93  1  0.66062654  0.15874990  0.39923998  1
  Li  Li94  1  0.59125010  0.91062654  0.14923998  1
  Li  Li95  1  0.90874990  0.08937346  0.64923998  1
  Li  Li96  1  0.83937346  0.65874990  0.39923998  1
  Li  Li97  1  0.66062654  0.34125010  0.89923998  1
  Li  Li98  1  0.59125010  0.58937346  0.64923998  1
  Li  Li99  1  0.90874990  0.41062654  0.14923998  1
  Li  Li100  1  0.66062654  0.65874990  0.60076002  1
  Li  Li101  1  0.83937346  0.34125010  0.10076002  1
  Li  Li102  1  0.90874990  0.58937346  0.35076002  1
  Li  Li103  1  0.59125010  0.41062654  0.85076002  1
  Li  Li104  1  0.16062654  0.34125010  0.60076002  1
  Li  Li105  1  0.33937346  0.65874990  0.10076002  1
  Li  Li106  1  0.40874990  0.41062654  0.35076002  1
  Li  Li107  1  0.09125010  0.58937346  0.85076002  1
  Li  Li108  1  0.33937346  0.34125010  0.39923998  1
  Li  Li109  1  0.16062654  0.65874990  0.89923998  1
  Li  Li110  1  0.09125010  0.41062654  0.64923998  1
  Li  Li111  1  0.40874990  0.58937346  0.14923998  1
  Li  Li112  1  0.04169444  0.59596130  0.76569519  1
  Li  Li113  1  0.45830556  0.40403870  0.26569519  1
  Li  Li114  1  0.65403870  0.79169444  0.01569519  1
  Li  Li115  1  0.84596130  0.20830556  0.51569519  1
  Li  Li116  1  0.45830556  0.59596130  0.23430481  1
  Li  Li117  1  0.04169444  0.40403870  0.73430481  1
  Li  Li118  1  0.84596130  0.79169444  0.98430481  1
  Li  Li119  1  0.65403870  0.20830556  0.48430481  1
  Li  Li120  1  0.95830556  0.40403870  0.23430481  1
  Li  Li121  1  0.54169444  0.59596130  0.73430481  1
  Li  Li122  1  0.34596130  0.20830556  0.98430481  1
  Li  Li123  1  0.15403870  0.79169444  0.48430481  1
  Li  Li124  1  0.54169444  0.40403870  0.76569519  1
  Li  Li125  1  0.95830556  0.59596130  0.26569519  1
  Li  Li126  1  0.15403870  0.20830556  0.01569519  1
  Li  Li127  1  0.34596130  0.79169444  0.51569519  1
  Li  Li128  1  0.54169444  0.09596130  0.26569519  1
  Li  Li129  1  0.95830556  0.90403870  0.76569519  1
  Li  Li130  1  0.15403870  0.29169444  0.51569519  1
  Li  Li131  1  0.34596130  0.70830556  0.01569519  1
  Li  Li132  1  0.95830556  0.09596130  0.73430481  1
  Li  Li133  1  0.54169444  0.90403870  0.23430481  1
  Li  Li134  1  0.34596130  0.29169444  0.48430481  1
  Li  Li135  1  0.15403870  0.70830556  0.98430481  1
  Li  Li136  1  0.45830556  0.90403870  0.73430481  1
  Li  Li137  1  0.04169444  0.09596130  0.23430481  1
  Li  Li138  1  0.84596130  0.70830556  0.48430481  1
  Li  Li139  1  0.65403870  0.29169444  0.98430481  1
  Li  Li140  1  0.04169444  0.90403870  0.26569519  1
  Li  Li141  1  0.45830556  0.09596130  0.76569519  1
  Li  Li142  1  0.65403870  0.70830556  0.51569519  1
  Li  Li143  1  0.84596130  0.29169444  0.01569519  1
  Te  Te144  1  0.46557585  0.71557585  0.12500000  1
  Te  Te145  1  0.03442415  0.28442415  0.62500000  1
  Te  Te146  1  0.53442415  0.21557585  0.37500000  1
  Te  Te147  1  0.96557585  0.78442415  0.87500000  1
  Te  Te148  1  0.53442415  0.28442415  0.87500000  1
  Te  Te149  1  0.96557585  0.71557585  0.37500000  1
  Te  Te150  1  0.46557585  0.78442415  0.62500000  1
  Te  Te151  1  0.03442415  0.21557585  0.12500000  1
  Te  Te152  1  0.96557585  0.21557585  0.62500000  1
  Te  Te153  1  0.53442415  0.78442415  0.12500000  1
  Te  Te154  1  0.03442415  0.71557585  0.87500000  1
  Te  Te155  1  0.46557585  0.28442415  0.37500000  1
  Te  Te156  1  0.03442415  0.78442415  0.37500000  1
  Te  Te157  1  0.46557585  0.21557585  0.87500000  1
  Te  Te158  1  0.96557585  0.28442415  0.12500000  1
  Te  Te159  1  0.53442415  0.71557585  0.62500000  1
  Te  Te160  1  0.00000000  0.25000000  0.37500000  1
  Te  Te161  1  0.00000000  0.75000000  0.62500000  1
  Te  Te162  1  0.50000000  0.25000000  0.62500000  1
  Te  Te163  1  0.50000000  0.75000000  0.37500000  1
  Te  Te164  1  0.50000000  0.75000000  0.87500000  1
  Te  Te165  1  0.50000000  0.25000000  0.12500000  1
  Te  Te166  1  0.00000000  0.75000000  0.12500000  1
  Te  Te167  1  0.00000000  0.25000000  0.87500000  1
