# generated using pymatgen
data_LiCaF3
_symmetry_space_group_name_H-M   'P 1'
_cell_length_a   11.24513811
_cell_length_b   11.24513811
_cell_length_c   16.47199461
_cell_angle_alpha   90.00000000
_cell_angle_beta   90.00000000
_cell_angle_gamma   120.00000000
_symmetry_Int_Tables_number   1
_chemical_formula_structural   LiCaF3
_chemical_formula_sum   'Li18 Ca18 F54'
_cell_volume   1803.87487929
_cell_formula_units_Z   18
loop_
 _symmetry_equiv_pos_site_id
 _symmetry_equiv_pos_as_xyz
  1  'x, y, z'
loop_
 _atom_site_type_symbol
 _atom_site_label
 _atom_site_symmetry_multiplicity
 _atom_site_fract_x
 _atom_site_fract_y
 _atom_site_fract_z
 _atom_site_occupancy
  Ca  Ca0  1  0.50000000  0.00000000  -0.00000000  1
  Ca  Ca1  1  0.00000000  0.50000000  0.00000000  1
  Ca  Ca2  1  0.50000000  0.50000000  0.00000000  1
  Ca  Ca3  1  0.00000000  0.50000000  0.50000000  1
  Ca  Ca4  1  0.50000000  0.00000000  0.50000000  1
  Ca  Ca5  1  0.50000000  0.50000000  0.50000000  1
  Ca  Ca6  1  0.16666667  0.33333333  0.33333333  1
  Ca  Ca7  1  0.66666667  0.83333333  0.33333333  1
  Ca  Ca8  1  0.16666667  0.83333333  0.33333333  1
  Ca  Ca9  1  0.66666667  0.83333333  0.83333333  1
  Ca  Ca10  1  0.16666667  0.33333333  0.83333333  1
  Ca  Ca11  1  0.16666667  0.83333333  0.83333333  1
  Ca  Ca12  1  0.83333333  0.66666667  0.66666667  1
  Ca  Ca13  1  0.33333333  0.16666667  0.66666667  1
  Ca  Ca14  1  0.83333333  0.16666667  0.66666667  1
  Ca  Ca15  1  0.33333333  0.16666667  0.16666667  1
  Ca  Ca16  1  0.83333333  0.66666667  0.16666667  1
  Ca  Ca17  1  0.83333333  0.16666667  0.16666667  1
  F  F18  1  0.48909845  0.54094339  0.90168883  1
  F  F19  1  -0.54094339  -0.05184494  0.90168883  1
  F  F20  1  0.05184494  -0.48909845  0.90168883  1
  F  F21  1  0.54094339  0.48909845  -0.40168883  1
  F  F22  1  -0.05184494  -0.54094339  -0.40168883  1
  F  F23  1  -0.48909845  0.05184494  -0.40168883  1
  F  F24  1  -0.48909845  -0.54094339  -0.90168883  1
  F  F25  1  0.54094339  0.05184494  -0.90168883  1
  F  F26  1  -0.05184494  0.48909845  -0.90168883  1
  F  F27  1  -0.54094339  -0.48909845  1.40168883  1
  F  F28  1  0.05184494  0.54094339  1.40168883  1
  F  F29  1  0.48909845  -0.05184494  1.40168883  1
  F  F30  1  1.15576511  0.87427672  1.23502217  1
  F  F31  1  0.12572328  0.28148839  1.23502217  1
  F  F32  1  0.71851161  -0.15576511  1.23502217  1
  F  F33  1  1.20761005  0.82243178  -0.06835550  1
  F  F34  1  0.61482173  -0.20761005  -0.06835550  1
  F  F35  1  0.17756822  0.38517827  -0.06835550  1
  F  F36  1  0.17756822  -0.20761005  -0.56835550  1
  F  F37  1  1.20761005  0.38517827  -0.56835550  1
  F  F38  1  0.61482173  0.82243178  -0.56835550  1
  F  F39  1  0.12572328  -0.15576511  1.73502217  1
  F  F40  1  0.71851161  0.87427672  1.73502217  1
  F  F41  1  1.15576511  0.28148839  1.73502217  1
  F  F42  1  0.82243178  1.20761005  1.56835550  1
  F  F43  1  -0.20761005  0.61482173  1.56835550  1
  F  F44  1  0.38517827  0.17756822  1.56835550  1
  F  F45  1  0.87427672  1.15576511  0.26497783  1
  F  F46  1  0.28148839  0.12572328  0.26497783  1
  F  F47  1  -0.15576511  0.71851161  0.26497783  1
  F  F48  1  -0.15576511  0.12572328  -0.23502217  1
  F  F49  1  0.87427672  0.71851161  -0.23502217  1
  F  F50  1  0.28148839  1.15576511  -0.23502217  1
  F  F51  1  -0.20761005  0.17756822  2.06835550  1
  F  F52  1  0.38517827  1.20761005  2.06835550  1
  F  F53  1  0.82243178  0.61482173  2.06835550  1
  F  F54  1  0.94411749  0.00000000  0.25000000  1
  F  F55  1  0.00000000  0.94411749  0.25000000  1
  F  F56  1  0.05588251  0.05588251  0.25000000  1
  F  F57  1  0.05588251  0.00000000  0.75000000  1
  F  F58  1  0.00000000  0.05588251  0.75000000  1
  F  F59  1  0.94411749  0.94411749  0.75000000  1
  F  F60  1  0.61078416  0.33333333  0.58333333  1
  F  F61  1  0.66666667  0.27745083  0.58333333  1
  F  F62  1  0.72254917  0.38921584  0.58333333  1
  F  F63  1  0.72254917  0.33333333  0.08333333  1
  F  F64  1  0.66666667  0.38921584  0.08333333  1
  F  F65  1  0.61078416  0.27745083  0.08333333  1
  F  F66  1  0.27745083  0.66666667  0.91666667  1
  F  F67  1  0.33333333  0.61078416  0.91666667  1
  F  F68  1  0.38921584  0.72254917  0.91666667  1
  F  F69  1  0.38921584  0.66666667  0.41666667  1
  F  F70  1  0.33333333  0.72254917  0.41666667  1
  F  F71  1  0.27745083  0.61078416  0.41666667  1
  Li  Li72  1  0.79625746  0.00000000  0.25000000  1
  Li  Li73  1  0.00000000  0.79625746  0.25000000  1
  Li  Li74  1  0.20374254  0.20374254  0.25000000  1
  Li  Li75  1  0.20374254  0.00000000  0.75000000  1
  Li  Li76  1  0.00000000  0.20374254  0.75000000  1
  Li  Li77  1  0.79625746  0.79625746  0.75000000  1
  Li  Li78  1  0.46292413  0.33333333  0.58333333  1
  Li  Li79  1  0.66666667  0.12959079  0.58333333  1
  Li  Li80  1  0.87040921  0.53707587  0.58333333  1
  Li  Li81  1  0.87040921  0.33333333  0.08333333  1
  Li  Li82  1  0.66666667  0.53707587  0.08333333  1
  Li  Li83  1  0.46292413  0.12959079  0.08333333  1
  Li  Li84  1  0.12959079  0.66666667  0.91666667  1
  Li  Li85  1  0.33333333  0.46292413  0.91666667  1
  Li  Li86  1  0.53707587  0.87040921  0.91666667  1
  Li  Li87  1  0.53707587  0.66666667  0.41666667  1
  Li  Li88  1  0.33333333  0.87040921  0.41666667  1
  Li  Li89  1  0.12959079  0.46292413  0.41666667  1
