# generated using pymatgen
data_Li4TeF2
_symmetry_space_group_name_H-M   'P 1'
_cell_length_a   14.98019072
_cell_length_b   14.98019072
_cell_length_c   14.98019072
_cell_angle_alpha   90.00000000
_cell_angle_beta   90.00000000
_cell_angle_gamma   90.00000000
_symmetry_Int_Tables_number   1
_chemical_formula_structural   Li4TeF2
_chemical_formula_sum   'Li96 Te24 F48'
_cell_volume   3361.64638927
_cell_formula_units_Z   24
loop_
 _symmetry_equiv_pos_site_id
 _symmetry_equiv_pos_as_xyz
  1  'x, y, z'
loop_
 _atom_site_type_symbol
 _atom_site_label
 _atom_site_symmetry_multiplicity
 _atom_site_fract_x
 _atom_site_fract_y
 _atom_site_fract_z
 _atom_site_occupancy
  F  F0  1  0.66088528  0.24973318  0.66414693  1
  F  F1  1  -0.16088528  -0.24973318  1.16414693  1
  F  F2  1  -0.66088528  0.74973318  -0.16414693  1
  F  F3  1  1.16088528  0.25026682  -0.66414693  1
  F  F4  1  0.66414693  0.66088528  0.24973318  1
  F  F5  1  1.16414693  -0.16088528  -0.24973318  1
  F  F6  1  -0.16414693  -0.66088528  0.74973318  1
  F  F7  1  -0.66414693  1.16088528  0.25026682  1
  F  F8  1  0.24973318  0.66414693  0.66088528  1
  F  F9  1  -0.24973318  1.16414693  -0.16088528  1
  F  F10  1  0.74973318  -0.16414693  -0.66088528  1
  F  F11  1  0.25026682  -0.66414693  1.16088528  1
  F  F12  1  0.99973318  0.91088528  -0.41414693  1
  F  F13  1  0.50026682  0.08911472  0.08585307  1
  F  F14  1  0.49973318  -0.41088528  1.41414693  1
  F  F15  1  0.00026682  1.41088528  0.91414693  1
  F  F16  1  1.41088528  0.91414693  0.00026682  1
  F  F17  1  -0.41088528  1.41414693  0.49973318  1
  F  F18  1  0.08911472  0.08585307  0.50026682  1
  F  F19  1  0.91088528  -0.41414693  0.99973318  1
  F  F20  1  1.41414693  0.49973318  -0.41088528  1
  F  F21  1  0.91414693  0.00026682  1.41088528  1
  F  F22  1  -0.41414693  0.99973318  0.91088528  1
  F  F23  1  0.08585307  0.50026682  0.08911472  1
  F  F24  1  1.16088528  0.74973318  1.16414693  1
  F  F25  1  0.33911472  0.25026682  1.66414693  1
  F  F26  1  -0.16088528  1.24973318  0.33585307  1
  F  F27  1  1.66088528  0.75026682  -0.16414693  1
  F  F28  1  1.16414693  1.16088528  0.74973318  1
  F  F29  1  1.66414693  0.33911472  0.25026682  1
  F  F30  1  0.33585307  -0.16088528  1.24973318  1
  F  F31  1  -0.16414693  1.66088528  0.75026682  1
  F  F32  1  0.74973318  1.16414693  1.16088528  1
  F  F33  1  0.25026682  1.66414693  0.33911472  1
  F  F34  1  1.24973318  0.33585307  -0.16088528  1
  F  F35  1  0.75026682  -0.16414693  1.66088528  1
  F  F36  1  1.49973318  1.41088528  0.08585307  1
  F  F37  1  1.00026682  0.58911472  0.58585307  1
  F  F38  1  0.99973318  0.08911472  1.91414693  1
  F  F39  1  0.50026682  1.91088528  1.41414693  1
  F  F40  1  1.91088528  1.41414693  0.50026682  1
  F  F41  1  0.08911472  1.91414693  0.99973318  1
  F  F42  1  0.58911472  0.58585307  1.00026682  1
  F  F43  1  1.41088528  0.08585307  1.49973318  1
  F  F44  1  1.91414693  0.99973318  0.08911472  1
  F  F45  1  1.41414693  0.50026682  1.91088528  1
  F  F46  1  0.08585307  1.49973318  1.41088528  1
  F  F47  1  0.58585307  1.00026682  0.58911472  1
  Li  Li48  1  0.27645331  0.01400836  0.18012151  1
  Li  Li49  1  0.22354669  0.98599164  0.68012151  1
  Li  Li50  1  0.72354669  0.51400836  0.31987849  1
  Li  Li51  1  0.77645331  0.48599164  0.81987849  1
  Li  Li52  1  0.18012151  0.27645331  0.01400836  1
  Li  Li53  1  0.68012151  0.22354669  0.98599164  1
  Li  Li54  1  0.31987849  0.72354669  0.51400836  1
  Li  Li55  1  0.81987849  0.77645331  0.48599164  1
  Li  Li56  1  0.01400836  0.18012151  0.27645331  1
  Li  Li57  1  0.98599164  0.68012151  0.22354669  1
  Li  Li58  1  0.51400836  0.31987849  0.72354669  1
  Li  Li59  1  0.48599164  0.81987849  0.77645331  1
  Li  Li60  1  0.76400836  0.52645331  0.06987849  1
  Li  Li61  1  0.73599164  0.47354669  0.56987849  1
  Li  Li62  1  0.26400836  0.97354669  0.93012151  1
  Li  Li63  1  0.23599164  0.02645331  0.43012151  1
  Li  Li64  1  0.02645331  0.43012151  0.23599164  1
  Li  Li65  1  0.97354669  0.93012151  0.26400836  1
  Li  Li66  1  0.47354669  0.56987849  0.73599164  1
  Li  Li67  1  0.52645331  0.06987849  0.76400836  1
  Li  Li68  1  0.93012151  0.26400836  0.97354669  1
  Li  Li69  1  0.43012151  0.23599164  0.02645331  1
  Li  Li70  1  0.06987849  0.76400836  0.52645331  1
  Li  Li71  1  0.56987849  0.73599164  0.47354669  1
  Li  Li72  1  0.77645331  0.51400836  0.68012151  1
  Li  Li73  1  0.72354669  0.48599164  0.18012151  1
  Li  Li74  1  0.22354669  0.01400836  0.81987849  1
  Li  Li75  1  0.27645331  0.98599164  0.31987849  1
  Li  Li76  1  0.68012151  0.77645331  0.51400836  1
  Li  Li77  1  0.18012151  0.72354669  0.48599164  1
  Li  Li78  1  0.81987849  0.22354669  0.01400836  1
  Li  Li79  1  0.31987849  0.27645331  0.98599164  1
  Li  Li80  1  0.51400836  0.68012151  0.77645331  1
  Li  Li81  1  0.48599164  0.18012151  0.72354669  1
  Li  Li82  1  0.01400836  0.81987849  0.22354669  1
  Li  Li83  1  0.98599164  0.31987849  0.27645331  1
  Li  Li84  1  0.26400836  0.02645331  0.56987849  1
  Li  Li85  1  0.23599164  0.97354669  0.06987849  1
  Li  Li86  1  0.76400836  0.47354669  0.43012151  1
  Li  Li87  1  0.73599164  0.52645331  0.93012151  1
  Li  Li88  1  0.52645331  0.93012151  0.73599164  1
  Li  Li89  1  0.47354669  0.43012151  0.76400836  1
  Li  Li90  1  0.97354669  0.06987849  0.23599164  1
  Li  Li91  1  0.02645331  0.56987849  0.26400836  1
  Li  Li92  1  0.43012151  0.76400836  0.47354669  1
  Li  Li93  1  0.93012151  0.73599164  0.52645331  1
  Li  Li94  1  0.56987849  0.26400836  0.02645331  1
  Li  Li95  1  0.06987849  0.23599164  0.97354669  1
  Li  Li96  1  0.12500000  0.42347826  0.82652174  1
  Li  Li97  1  0.37500000  0.57652174  0.32652174  1
  Li  Li98  1  0.87500000  0.92347826  0.67347826  1
  Li  Li99  1  0.62500000  0.07652174  0.17347826  1
  Li  Li100  1  0.82652174  0.12500000  0.42347826  1
  Li  Li101  1  0.32652174  0.37500000  0.57652174  1
  Li  Li102  1  0.67347826  0.87500000  0.92347826  1
  Li  Li103  1  0.17347826  0.62500000  0.07652174  1
  Li  Li104  1  0.42347826  0.82652174  0.12500000  1
  Li  Li105  1  0.57652174  0.32652174  0.37500000  1
  Li  Li106  1  0.92347826  0.67347826  0.87500000  1
  Li  Li107  1  0.07652174  0.17347826  0.62500000  1
  Li  Li108  1  0.62500000  0.92347826  0.32652174  1
  Li  Li109  1  0.87500000  0.07652174  0.82652174  1
  Li  Li110  1  0.37500000  0.42347826  0.17347826  1
  Li  Li111  1  0.12500000  0.57652174  0.67347826  1
  Li  Li112  1  0.32652174  0.62500000  0.92347826  1
  Li  Li113  1  0.82652174  0.87500000  0.07652174  1
  Li  Li114  1  0.17347826  0.37500000  0.42347826  1
  Li  Li115  1  0.67347826  0.12500000  0.57652174  1
  Li  Li116  1  0.92347826  0.32652174  0.62500000  1
  Li  Li117  1  0.07652174  0.82652174  0.87500000  1
  Li  Li118  1  0.42347826  0.17347826  0.37500000  1
  Li  Li119  1  0.57652174  0.67347826  0.12500000  1
  Li  Li120  1  0.62500000  -0.00000000  0.25000000  1
  Li  Li121  1  0.87500000  -0.00000000  0.75000000  1
  Li  Li122  1  0.25000000  0.62500000  -0.00000000  1
  Li  Li123  1  0.75000000  0.87500000  -0.00000000  1
  Li  Li124  1  0.00000000  0.25000000  0.62500000  1
  Li  Li125  1  0.00000000  0.75000000  0.87500000  1
  Li  Li126  1  0.12500000  0.50000000  0.75000000  1
  Li  Li127  1  0.37500000  0.50000000  0.25000000  1
  Li  Li128  1  0.75000000  0.12500000  0.50000000  1
  Li  Li129  1  0.25000000  0.37500000  0.50000000  1
  Li  Li130  1  0.50000000  0.75000000  0.12500000  1
  Li  Li131  1  0.50000000  0.25000000  0.37500000  1
  Li  Li132  1  0.12500000  -0.00000000  0.25000000  1
  Li  Li133  1  0.37500000  0.00000000  0.75000000  1
  Li  Li134  1  0.25000000  0.12500000  -0.00000000  1
  Li  Li135  1  0.75000000  0.37500000  0.00000000  1
  Li  Li136  1  0.00000000  0.25000000  0.12500000  1
  Li  Li137  1  0.00000000  0.75000000  0.37500000  1
  Li  Li138  1  0.62500000  0.50000000  0.75000000  1
  Li  Li139  1  0.87500000  0.50000000  0.25000000  1
  Li  Li140  1  0.75000000  0.62500000  0.50000000  1
  Li  Li141  1  0.25000000  0.87500000  0.50000000  1
  Li  Li142  1  0.50000000  0.75000000  0.62500000  1
  Li  Li143  1  0.50000000  0.25000000  0.87500000  1
  Te  Te144  1  0.12500000  0.14200543  0.39200543  1
  Te  Te145  1  0.37500000  0.85799457  0.89200543  1
  Te  Te146  1  0.87500000  0.64200543  0.10799457  1
  Te  Te147  1  0.62500000  0.35799457  0.60799457  1
  Te  Te148  1  0.39200543  0.12500000  0.14200543  1
  Te  Te149  1  0.89200543  0.37500000  0.85799457  1
  Te  Te150  1  0.10799457  0.87500000  0.64200543  1
  Te  Te151  1  0.60799457  0.62500000  0.35799457  1
  Te  Te152  1  0.14200543  0.39200543  0.12500000  1
  Te  Te153  1  0.85799457  0.89200543  0.37500000  1
  Te  Te154  1  0.64200543  0.10799457  0.87500000  1
  Te  Te155  1  0.35799457  0.60799457  0.62500000  1
  Te  Te156  1  0.62500000  0.64200543  0.89200543  1
  Te  Te157  1  0.87500000  0.35799457  0.39200543  1
  Te  Te158  1  0.37500000  0.14200543  0.60799457  1
  Te  Te159  1  0.12500000  0.85799457  0.10799457  1
  Te  Te160  1  0.89200543  0.62500000  0.64200543  1
  Te  Te161  1  0.39200543  0.87500000  0.35799457  1
  Te  Te162  1  0.60799457  0.37500000  0.14200543  1
  Te  Te163  1  0.10799457  0.12500000  0.85799457  1
  Te  Te164  1  0.64200543  0.89200543  0.62500000  1
  Te  Te165  1  0.35799457  0.39200543  0.87500000  1
  Te  Te166  1  0.14200543  0.60799457  0.37500000  1
  Te  Te167  1  0.85799457  0.10799457  0.12500000  1
