# generated using pymatgen
data_LiF
_symmetry_space_group_name_H-M   'P 1'
_cell_length_a   7.94062056
_cell_length_b   7.94062056
_cell_length_c   23.64179757
_cell_angle_alpha   90.00000000
_cell_angle_beta   90.00000000
_cell_angle_gamma   120.00000000
_symmetry_Int_Tables_number   1
_chemical_formula_structural   LiF
_chemical_formula_sum   'Li54 F54'
_cell_volume   1290.98148587
_cell_formula_units_Z   54
loop_
 _symmetry_equiv_pos_site_id
 _symmetry_equiv_pos_as_xyz
  1  'x, y, z'
loop_
 _atom_site_type_symbol
 _atom_site_label
 _atom_site_symmetry_multiplicity
 _atom_site_fract_x
 _atom_site_fract_y
 _atom_site_fract_z
 _atom_site_occupancy
  F  F0  1  0.63963617  0.16691368  0.77452332  1
  F  F1  1  0.83308632  0.47272250  0.77452332  1
  F  F2  1  0.52727750  0.36036383  0.77452332  1
  F  F3  1  0.16691368  0.63963617  0.72547668  1
  F  F4  1  0.47272250  0.83308632  0.72547668  1
  F  F5  1  0.36036383  0.52727750  0.72547668  1
  F  F6  1  0.36036383  0.83308632  0.22547668  1
  F  F7  1  0.16691368  0.52727750  0.22547668  1
  F  F8  1  0.47272250  0.63963617  0.22547668  1
  F  F9  1  0.83308632  0.36036383  0.27452332  1
  F  F10  1  0.52727750  0.16691368  0.27452332  1
  F  F11  1  0.63963617  0.47272250  0.27452332  1
  F  F12  1  0.30630284  0.50024701  0.10785665  1
  F  F13  1  0.49975299  0.80605583  0.10785665  1
  F  F14  1  0.19394417  0.69369716  0.10785665  1
  F  F15  1  0.83358034  0.97296950  0.05881001  1
  F  F16  1  0.13938916  0.16641966  0.05881001  1
  F  F17  1  0.02703050  0.86061084  0.05881001  1
  F  F18  1  0.02703050  0.16641966  0.55881001  1
  F  F19  1  0.83358034  0.86061084  0.55881001  1
  F  F20  1  0.13938916  0.97296950  0.55881001  1
  F  F21  1  0.49975299  0.69369716  0.60785665  1
  F  F22  1  0.19394417  0.50024701  0.60785665  1
  F  F23  1  0.30630284  0.80605583  0.60785665  1
  F  F24  1  0.97296950  0.83358034  0.44118999  1
  F  F25  1  0.16641966  0.13938916  0.44118999  1
  F  F26  1  0.86061084  0.02703050  0.44118999  1
  F  F27  1  0.50024701  0.30630284  0.39214335  1
  F  F28  1  0.80605583  0.49975299  0.39214335  1
  F  F29  1  0.69369716  0.19394417  0.39214335  1
  F  F30  1  0.69369716  0.49975299  0.89214335  1
  F  F31  1  0.50024701  0.19394417  0.89214335  1
  F  F32  1  0.80605583  0.30630284  0.89214335  1
  F  F33  1  0.16641966  0.02703050  0.94118999  1
  F  F34  1  0.86061084  0.83358034  0.94118999  1
  F  F35  1  0.97296950  0.13938916  0.94118999  1
  F  F36  1  0.52123334  0.00000000  0.25000000  1
  F  F37  1  0.00000000  0.52123334  0.25000000  1
  F  F38  1  0.47876666  0.47876666  0.25000000  1
  F  F39  1  0.47876666  -0.00000000  0.75000000  1
  F  F40  1  0.00000000  0.47876666  0.75000000  1
  F  F41  1  0.52123334  0.52123334  0.75000000  1
  F  F42  1  0.18790000  0.33333333  0.58333333  1
  F  F43  1  0.66666667  0.85456667  0.58333333  1
  F  F44  1  0.14543333  0.81210000  0.58333333  1
  F  F45  1  0.14543333  0.33333333  0.08333333  1
  F  F46  1  0.66666667  0.81210000  0.08333333  1
  F  F47  1  0.18790000  0.85456667  0.08333333  1
  F  F48  1  0.85456667  0.66666667  0.91666667  1
  F  F49  1  0.33333333  0.18790000  0.91666667  1
  F  F50  1  0.81210000  0.14543333  0.91666667  1
  F  F51  1  0.81210000  0.66666667  0.41666667  1
  F  F52  1  0.33333333  0.14543333  0.41666667  1
  F  F53  1  0.85456667  0.18790000  0.41666667  1
  Li  Li54  1  0.44697833  0.06558163  0.69604422  1
  Li  Li55  1  -0.06558163  0.38139669  0.69604422  1
  Li  Li56  1  -0.38139669  -0.44697833  0.69604422  1
  Li  Li57  1  0.06558163  0.44697833  -0.19604422  1
  Li  Li58  1  0.38139669  -0.06558163  -0.19604422  1
  Li  Li59  1  -0.44697833  -0.38139669  -0.19604422  1
  Li  Li60  1  -0.44697833  -0.06558163  -0.69604422  1
  Li  Li61  1  0.06558163  -0.38139669  -0.69604422  1
  Li  Li62  1  0.38139669  0.44697833  -0.69604422  1
  Li  Li63  1  -0.06558163  -0.44697833  1.19604422  1
  Li  Li64  1  -0.38139669  0.06558163  1.19604422  1
  Li  Li65  1  0.44697833  0.38139669  1.19604422  1
  Li  Li66  1  1.11364499  0.39891497  1.02937755  1
  Li  Li67  1  0.60108503  0.71473003  1.02937755  1
  Li  Li68  1  0.28526997  -0.11364499  1.02937755  1
  Li  Li69  1  0.73224830  0.78031166  0.13728912  1
  Li  Li70  1  1.04806336  0.26775170  0.13728912  1
  Li  Li71  1  0.21968834  -0.04806336  0.13728912  1
  Li  Li72  1  0.21968834  0.26775170  -0.36271088  1
  Li  Li73  1  0.73224830  -0.04806336  -0.36271088  1
  Li  Li74  1  1.04806336  0.78031166  -0.36271088  1
  Li  Li75  1  0.60108503  -0.11364499  1.52937755  1
  Li  Li76  1  0.28526997  0.39891497  1.52937755  1
  Li  Li77  1  1.11364499  0.71473003  1.52937755  1
  Li  Li78  1  0.78031166  0.73224830  1.36271088  1
  Li  Li79  1  0.26775170  1.04806336  1.36271088  1
  Li  Li80  1  -0.04806336  0.21968834  1.36271088  1
  Li  Li81  1  0.39891497  1.11364499  0.47062245  1
  Li  Li82  1  0.71473003  0.60108503  0.47062245  1
  Li  Li83  1  -0.11364499  0.28526997  0.47062245  1
  Li  Li84  1  -0.11364499  0.60108503  -0.02937755  1
  Li  Li85  1  0.39891497  0.28526997  -0.02937755  1
  Li  Li86  1  0.71473003  1.11364499  -0.02937755  1
  Li  Li87  1  0.26775170  0.21968834  1.86271088  1
  Li  Li88  1  -0.04806336  0.73224830  1.86271088  1
  Li  Li89  1  0.78031166  1.04806336  1.86271088  1
  Li  Li90  1  0.00000000  0.00000000  0.34888736  1
  Li  Li91  1  0.00000000  0.00000000  0.15111264  1
  Li  Li92  1  0.00000000  0.00000000  0.65111264  1
  Li  Li93  1  0.00000000  0.00000000  0.84888736  1
  Li  Li94  1  0.66666667  0.33333333  0.68222070  1
  Li  Li95  1  0.66666667  0.33333333  0.48444597  1
  Li  Li96  1  0.66666667  0.33333333  0.98444597  1
  Li  Li97  1  0.66666667  0.33333333  0.18222070  1
  Li  Li98  1  0.33333333  0.66666667  0.01555403  1
  Li  Li99  1  0.33333333  0.66666667  0.81777930  1
  Li  Li100  1  0.33333333  0.66666667  0.31777930  1
  Li  Li101  1  0.33333333  0.66666667  0.51555403  1
  Li  Li102  1  0.00000000  0.00000000  0.25000000  1
  Li  Li103  1  0.00000000  0.00000000  0.75000000  1
  Li  Li104  1  0.66666667  0.33333333  0.58333333  1
  Li  Li105  1  0.66666667  0.33333333  0.08333333  1
  Li  Li106  1  0.33333333  0.66666667  0.91666667  1
  Li  Li107  1  0.33333333  0.66666667  0.41666667  1
