# generated using pymatgen
data_LiF
_symmetry_space_group_name_H-M   'P 1'
_cell_length_a   5.30875649
_cell_length_b   5.30875649
_cell_length_c   13.95521528
_cell_angle_alpha   90.00000000
_cell_angle_beta   90.00000000
_cell_angle_gamma   90.00000000
_symmetry_Int_Tables_number   1
_chemical_formula_structural   LiF
_chemical_formula_sum   'Li12 F12'
_cell_volume   393.29837386
_cell_formula_units_Z   12
loop_
 _symmetry_equiv_pos_site_id
 _symmetry_equiv_pos_as_xyz
  1  'x, y, z'
loop_
 _atom_site_type_symbol
 _atom_site_label
 _atom_site_symmetry_multiplicity
 _atom_site_fract_x
 _atom_site_fract_y
 _atom_site_fract_z
 _atom_site_occupancy
  F  F0  1  0.30478797  0.30478797  -0.00000000  1
  F  F1  1  0.69521203  0.69521203  0.00000000  1
  F  F2  1  0.69521203  0.30478797  -0.00000000  1
  F  F3  1  0.30478797  0.69521203  0.00000000  1
  F  F4  1  0.87824887  -0.00000000  0.50000000  1
  F  F5  1  0.12175113  0.00000000  0.50000000  1
  F  F6  1  0.00000000  0.87824887  0.50000000  1
  F  F7  1  0.00000000  0.12175113  0.50000000  1
  F  F8  1  0.00000000  0.50000000  0.50000000  1
  F  F9  1  0.50000000  0.00000000  0.50000000  1
  F  F10  1  0.50000000  0.50000000  0.95029964  1
  F  F11  1  0.50000000  0.50000000  0.04970036  1
  Li  Li12  1  0.80886629  0.50000000  0.00000000  1
  Li  Li13  1  -0.80886629  0.50000000  0.00000000  1
  Li  Li14  1  0.50000000  0.80886629  0.00000000  1
  Li  Li15  1  0.50000000  -0.80886629  0.00000000  1
  Li  Li16  1  0.00000000  0.50000000  0.18256809  1
  Li  Li17  1  0.50000000  0.00000000  0.18256809  1
  Li  Li18  1  0.00000000  0.50000000  0.81743191  1
  Li  Li19  1  0.50000000  0.00000000  0.81743191  1
  Li  Li20  1  0.00000000  0.00000000  0.00000000  1
  Li  Li21  1  0.00000000  0.00000000  0.89876398  1
  Li  Li22  1  0.00000000  0.00000000  0.10123602  1
  Li  Li23  1  0.50000000  0.50000000  0.50000000  1
