# generated using pymatgen
data_LiF
_symmetry_space_group_name_H-M   'P 1'
_cell_length_a   9.59106750
_cell_length_b   7.02558144
_cell_length_c   9.63609190
_cell_angle_alpha   90.00000000
_cell_angle_beta   90.00000000
_cell_angle_gamma   90.00000000
_symmetry_Int_Tables_number   1
_chemical_formula_structural   LiF
_chemical_formula_sum   'Li24 F24'
_cell_volume   649.30710184
_cell_formula_units_Z   24
loop_
 _symmetry_equiv_pos_site_id
 _symmetry_equiv_pos_as_xyz
  1  'x, y, z'
loop_
 _atom_site_type_symbol
 _atom_site_label
 _atom_site_symmetry_multiplicity
 _atom_site_fract_x
 _atom_site_fract_y
 _atom_site_fract_z
 _atom_site_occupancy
  F  F0  1  0.52797153  0.11983277  0.26171535  1
  F  F1  1  0.97202847  0.88016723  0.76171535  1
  F  F2  1  0.47202847  0.61983277  0.73828465  1
  F  F3  1  0.02797153  0.38016723  0.23828465  1
  F  F4  1  0.47202847  0.88016723  0.73828465  1
  F  F5  1  0.02797153  0.11983277  0.23828465  1
  F  F6  1  0.52797153  0.38016723  0.26171535  1
  F  F7  1  0.97202847  0.61983277  0.76171535  1
  F  F8  1  0.92883485  0.37275305  0.83980671  1
  F  F9  1  0.57116515  0.62724695  0.33980671  1
  F  F10  1  0.07116515  0.87275305  0.16019329  1
  F  F11  1  0.42883485  0.12724695  0.66019329  1
  F  F12  1  0.07116515  0.62724695  0.16019329  1
  F  F13  1  0.42883485  0.37275305  0.66019329  1
  F  F14  1  0.92883485  0.12724695  0.83980671  1
  F  F15  1  0.57116515  0.87275305  0.33980671  1
  F  F16  1  0.58598399  0.25000000  0.29282737  1
  F  F17  1  0.91401601  0.75000000  0.79282737  1
  F  F18  1  0.41401601  0.75000000  0.70717263  1
  F  F19  1  0.08598399  0.25000000  0.20717263  1
  F  F20  1  0.61019141  0.25000000  0.21326192  1
  F  F21  1  0.88980859  0.75000000  0.71326192  1
  F  F22  1  0.38980859  0.75000000  0.78673808  1
  F  F23  1  0.11019141  0.25000000  0.28673808  1
  Li  Li24  1  0.23362524  0.25000000  0.20472355  1
  Li  Li25  1  0.26637476  0.75000000  0.70472355  1
  Li  Li26  1  0.76637476  0.75000000  0.79527645  1
  Li  Li27  1  0.73362524  0.25000000  0.29527645  1
  Li  Li28  1  0.00000000  0.00000000  0.00000000  1
  Li  Li29  1  0.50000000  0.00000000  0.50000000  1
  Li  Li30  1  0.00000000  0.50000000  0.00000000  1
  Li  Li31  1  0.50000000  0.50000000  0.50000000  1
  Li  Li32  1  0.09888057  0.88180065  0.26314977  1
  Li  Li33  1  0.40111943  -0.88180065  0.76314977  1
  Li  Li34  1  -0.09888057  1.38180065  -0.26314977  1
  Li  Li35  1  0.59888057  -0.38180065  0.23685023  1
  Li  Li36  1  -0.09888057  -0.88180065  -0.26314977  1
  Li  Li37  1  0.59888057  0.88180065  0.23685023  1
  Li  Li38  1  0.09888057  -0.38180065  0.26314977  1
  Li  Li39  1  0.40111943  1.38180065  0.76314977  1
  Li  Li40  1  0.16518931  0.54449253  0.65319724  1
  Li  Li41  1  0.33481069  0.45550747  0.15319724  1
  Li  Li42  1  0.83481069  0.04449253  0.34680276  1
  Li  Li43  1  0.66518931  0.95550747  0.84680276  1
  Li  Li44  1  0.83481069  0.45550747  0.34680276  1
  Li  Li45  1  0.66518931  0.54449253  0.84680276  1
  Li  Li46  1  0.16518931  0.95550747  0.65319724  1
  Li  Li47  1  0.33481069  0.04449253  0.15319724  1
