# generated using pymatgen
data_LiCaF3
_symmetry_space_group_name_H-M   'P 1'
_cell_length_a   11.71550089
_cell_length_b   11.71550089
_cell_length_c   8.82094424
_cell_angle_alpha   90.00000000
_cell_angle_beta   90.00000000
_cell_angle_gamma   90.00000000
_symmetry_Int_Tables_number   1
_chemical_formula_structural   LiCaF3
_chemical_formula_sum   'Li18 Ca18 F54'
_cell_volume   1210.70071663
_cell_formula_units_Z   18
loop_
 _symmetry_equiv_pos_site_id
 _symmetry_equiv_pos_as_xyz
  1  'x, y, z'
loop_
 _atom_site_type_symbol
 _atom_site_label
 _atom_site_symmetry_multiplicity
 _atom_site_fract_x
 _atom_site_fract_y
 _atom_site_fract_z
 _atom_site_occupancy
  Ca  Ca0  1  0.00000000  0.00000000  0.00000000  1
  Ca  Ca1  1  0.64244677  0.50000000  0.87832244  1
  Ca  Ca2  1  0.35755323  0.50000000  0.87832244  1
  Ca  Ca3  1  0.50000000  0.64244677  0.87832244  1
  Ca  Ca4  1  0.50000000  0.35755323  0.87832244  1
  Ca  Ca5  1  0.35755323  0.50000000  0.12167756  1
  Ca  Ca6  1  0.64244677  0.50000000  0.12167756  1
  Ca  Ca7  1  0.50000000  0.64244677  0.12167756  1
  Ca  Ca8  1  0.50000000  0.35755323  0.12167756  1
  Ca  Ca9  1  0.59624036  0.59624036  0.50000000  1
  Ca  Ca10  1  0.40375964  0.40375964  0.50000000  1
  Ca  Ca11  1  0.40375964  0.59624036  0.50000000  1
  Ca  Ca12  1  0.59624036  0.40375964  0.50000000  1
  Ca  Ca13  1  0.69067815  0.00000000  0.50000000  1
  Ca  Ca14  1  0.30932185  0.00000000  0.50000000  1
  Ca  Ca15  1  0.00000000  0.69067815  0.50000000  1
  Ca  Ca16  1  0.00000000  0.30932185  0.50000000  1
  Ca  Ca17  1  0.00000000  0.00000000  0.50000000  1
  F  F18  1  0.20487279  0.73528888  0.28422470  1
  F  F19  1  -0.20487279  -0.73528888  0.28422470  1
  F  F20  1  -0.73528888  0.20487279  0.28422470  1
  F  F21  1  0.73528888  -0.20487279  0.28422470  1
  F  F22  1  -0.20487279  0.73528888  -0.28422470  1
  F  F23  1  0.20487279  -0.73528888  -0.28422470  1
  F  F24  1  0.73528888  0.20487279  -0.28422470  1
  F  F25  1  -0.73528888  -0.20487279  -0.28422470  1
  F  F26  1  -0.20487279  -0.73528888  -0.28422470  1
  F  F27  1  0.20487279  0.73528888  -0.28422470  1
  F  F28  1  0.73528888  -0.20487279  -0.28422470  1
  F  F29  1  -0.73528888  0.20487279  -0.28422470  1
  F  F30  1  0.20487279  -0.73528888  0.28422470  1
  F  F31  1  -0.20487279  0.73528888  0.28422470  1
  F  F32  1  -0.73528888  -0.20487279  0.28422470  1
  F  F33  1  0.73528888  0.20487279  0.28422470  1
  F  F34  1  0.03713567  0.25856355  0.81278327  1
  F  F35  1  0.96286433  0.74143645  0.81278327  1
  F  F36  1  0.74143645  0.03713567  0.81278327  1
  F  F37  1  0.25856355  0.96286433  0.81278327  1
  F  F38  1  0.96286433  0.25856355  0.18721673  1
  F  F39  1  0.03713567  0.74143645  0.18721673  1
  F  F40  1  0.25856355  0.03713567  0.18721673  1
  F  F41  1  0.74143645  0.96286433  0.18721673  1
  F  F42  1  0.96286433  0.74143645  0.18721673  1
  F  F43  1  0.03713567  0.25856355  0.18721673  1
  F  F44  1  0.25856355  0.96286433  0.18721673  1
  F  F45  1  0.74143645  0.03713567  0.18721673  1
  F  F46  1  0.03713567  0.74143645  0.81278327  1
  F  F47  1  0.96286433  0.25856355  0.81278327  1
  F  F48  1  0.74143645  0.96286433  0.81278327  1
  F  F49  1  0.25856355  0.03713567  0.81278327  1
  F  F50  1  0.59117101  0.59117101  0.30463825  1
  F  F51  1  0.40882899  0.40882899  0.30463825  1
  F  F52  1  0.40882899  0.59117101  0.30463825  1
  F  F53  1  0.59117101  0.40882899  0.30463825  1
  F  F54  1  0.40882899  0.59117101  0.69536175  1
  F  F55  1  0.59117101  0.40882899  0.69536175  1
  F  F56  1  0.59117101  0.59117101  0.69536175  1
  F  F57  1  0.40882899  0.40882899  0.69536175  1
  F  F58  1  0.79873880  0.50000000  0.89428709  1
  F  F59  1  0.20126120  0.50000000  0.89428709  1
  F  F60  1  0.50000000  0.79873880  0.89428709  1
  F  F61  1  0.50000000  0.20126120  0.89428709  1
  F  F62  1  0.20126120  0.50000000  0.10571291  1
  F  F63  1  0.79873880  0.50000000  0.10571291  1
  F  F64  1  0.50000000  0.79873880  0.10571291  1
  F  F65  1  0.50000000  0.20126120  0.10571291  1
  F  F66  1  0.81488500  0.81488500  0.50000000  1
  F  F67  1  0.18511500  0.18511500  0.50000000  1
  F  F68  1  0.18511500  0.81488500  0.50000000  1
  F  F69  1  0.81488500  0.18511500  0.50000000  1
  F  F70  1  0.00000000  0.50000000  0.50000000  1
  F  F71  1  0.50000000  0.00000000  0.50000000  1
  Li  Li72  1  0.80696211  0.59073884  0.00000000  1
  Li  Li73  1  0.19303789  0.40926116  0.00000000  1
  Li  Li74  1  0.40926116  0.80696211  -0.00000000  1
  Li  Li75  1  0.59073884  0.19303789  0.00000000  1
  Li  Li76  1  0.19303789  0.59073884  0.00000000  1
  Li  Li77  1  0.80696211  0.40926116  -0.00000000  1
  Li  Li78  1  0.59073884  0.80696211  0.00000000  1
  Li  Li79  1  0.40926116  0.19303789  -0.00000000  1
  Li  Li80  1  0.08604464  0.08604464  0.88348169  1
  Li  Li81  1  0.91395536  0.91395536  0.88348169  1
  Li  Li82  1  0.91395536  0.08604464  0.88348169  1
  Li  Li83  1  0.08604464  0.91395536  0.88348169  1
  Li  Li84  1  0.91395536  0.08604464  0.11651831  1
  Li  Li85  1  0.08604464  0.91395536  0.11651831  1
  Li  Li86  1  0.08604464  0.08604464  0.11651831  1
  Li  Li87  1  0.91395536  0.91395536  0.11651831  1
  Li  Li88  1  0.50000000  0.50000000  0.00000000  1
  Li  Li89  1  0.50000000  0.50000000  0.50000000  1
