# generated using pymatgen
data_Li2Y2As2P3
_symmetry_space_group_name_H-M   'P 1'
_cell_length_a   5.36629733
_cell_length_b   5.39643191
_cell_length_c   7.28302080
_cell_angle_alpha   94.08317225
_cell_angle_beta   98.51690904
_cell_angle_gamma   105.81176728
_symmetry_Int_Tables_number   1
_chemical_formula_structural   Li2Y2As2P3
_chemical_formula_sum   'Li2 Y2 As2 P3'
_cell_volume   199.30578848
_cell_formula_units_Z   1
loop_
 _symmetry_equiv_pos_site_id
 _symmetry_equiv_pos_as_xyz
  1  'x, y, z'
loop_
 _atom_site_type_symbol
 _atom_site_label
 _atom_site_symmetry_multiplicity
 _atom_site_fract_x
 _atom_site_fract_y
 _atom_site_fract_z
 _atom_site_occupancy
  Y  Y0  1  0.12500000  0.00000000  0.25000000  1
  Y  Y1  1  0.00000000  0.00000000  0.00000000  1
  P  P2  1  0.37500000  0.00000000  0.25000000  1
  P  P3  1  0.25000000  0.25000000  0.25000000  1
  P  P4  1  0.00000000  0.25000000  0.12500000  1
  As  As5  1  0.66487639  0.92054862  0.27804933  1
  As  As6  1  0.77994523  0.72727935  0.16981786  1
  Li  Li7  1  0.08374057  0.28359417  0.89505072  1
  Li  Li8  1  0.71346370  0.48383153  0.43429093  1
