# generated using pymatgen
data_LiCaF3
_symmetry_space_group_name_H-M   'P 1'
_cell_length_a   8.96648808
_cell_length_b   8.96648808
_cell_length_c   26.11949974
_cell_angle_alpha   90.00000000
_cell_angle_beta   90.00000000
_cell_angle_gamma   90.00000000
_symmetry_Int_Tables_number   1
_chemical_formula_structural   LiCaF3
_chemical_formula_sum   'Li18 Ca18 F54'
_cell_volume   2099.95314899
_cell_formula_units_Z   18
loop_
 _symmetry_equiv_pos_site_id
 _symmetry_equiv_pos_as_xyz
  1  'x, y, z'
loop_
 _atom_site_type_symbol
 _atom_site_label
 _atom_site_symmetry_multiplicity
 _atom_site_fract_x
 _atom_site_fract_y
 _atom_site_fract_z
 _atom_site_occupancy
  Ca  Ca0  1  0.88436247  0.69932983  0.50000000  1
  Ca  Ca1  1  0.11563753  0.30067017  0.50000000  1
  Ca  Ca2  1  0.30067017  0.88436247  0.50000000  1
  Ca  Ca3  1  0.69932983  0.11563753  0.50000000  1
  Ca  Ca4  1  0.11563753  0.69932983  0.50000000  1
  Ca  Ca5  1  0.88436247  0.30067017  0.50000000  1
  Ca  Ca6  1  0.69932983  0.88436247  0.50000000  1
  Ca  Ca7  1  0.30067017  0.11563753  0.50000000  1
  Ca  Ca8  1  0.10193141  0.10193141  -0.00000000  1
  Ca  Ca9  1  0.89806859  0.89806859  0.00000000  1
  Ca  Ca10  1  0.89806859  0.10193141  0.00000000  1
  Ca  Ca11  1  0.10193141  0.89806859  0.00000000  1
  Ca  Ca12  1  0.63290637  0.63290637  0.50000000  1
  Ca  Ca13  1  0.36709363  0.36709363  0.50000000  1
  Ca  Ca14  1  0.36709363  0.63290637  0.50000000  1
  Ca  Ca15  1  0.63290637  0.36709363  0.50000000  1
  Ca  Ca16  1  0.50000000  0.50000000  0.86961314  1
  Ca  Ca17  1  0.50000000  0.50000000  0.13038686  1
  F  F18  1  0.13716977  0.24780658  0.06917095  1
  F  F19  1  -0.13716977  -0.24780658  0.06917095  1
  F  F20  1  -0.24780658  0.13716977  0.06917095  1
  F  F21  1  0.24780658  -0.13716977  0.06917095  1
  F  F22  1  -0.13716977  0.24780658  -0.06917095  1
  F  F23  1  0.13716977  -0.24780658  -0.06917095  1
  F  F24  1  0.24780658  0.13716977  -0.06917095  1
  F  F25  1  -0.24780658  -0.13716977  -0.06917095  1
  F  F26  1  -0.13716977  -0.24780658  -0.06917095  1
  F  F27  1  0.13716977  0.24780658  -0.06917095  1
  F  F28  1  0.24780658  -0.13716977  -0.06917095  1
  F  F29  1  -0.24780658  0.13716977  -0.06917095  1
  F  F30  1  0.13716977  -0.24780658  0.06917095  1
  F  F31  1  -0.13716977  0.24780658  0.06917095  1
  F  F32  1  -0.24780658  -0.13716977  0.06917095  1
  F  F33  1  0.24780658  0.13716977  0.06917095  1
  F  F34  1  0.00000000  0.50000000  0.50000000  1
  F  F35  1  0.50000000  0.00000000  0.50000000  1
  F  F36  1  0.00000000  0.50000000  0.00000000  1
  F  F37  1  0.50000000  0.00000000  0.00000000  1
  F  F38  1  0.00000000  0.50000000  0.88270002  1
  F  F39  1  0.50000000  0.00000000  0.88270002  1
  F  F40  1  0.00000000  0.50000000  0.11729998  1
  F  F41  1  0.50000000  0.00000000  0.11729998  1
  F  F42  1  0.78266567  0.78266567  0.50000000  1
  F  F43  1  0.21733433  0.21733433  0.50000000  1
  F  F44  1  0.21733433  0.78266567  0.50000000  1
  F  F45  1  0.78266567  0.21733433  0.50000000  1
  F  F46  1  0.57005073  0.78036095  0.94581150  1
  F  F47  1  0.42994927  0.21963905  0.94581150  1
  F  F48  1  0.21963905  0.57005073  0.94581150  1
  F  F49  1  0.78036095  0.42994927  0.94581150  1
  F  F50  1  0.42994927  0.78036095  0.05418850  1
  F  F51  1  0.57005073  0.21963905  0.05418850  1
  F  F52  1  0.78036095  0.57005073  0.05418850  1
  F  F53  1  0.21963905  0.42994927  0.05418850  1
  F  F54  1  0.42994927  0.21963905  0.05418850  1
  F  F55  1  0.57005073  0.78036095  0.05418850  1
  F  F56  1  0.78036095  0.42994927  0.05418850  1
  F  F57  1  0.21963905  0.57005073  0.05418850  1
  F  F58  1  0.57005073  0.21963905  0.94581150  1
  F  F59  1  0.42994927  0.78036095  0.94581150  1
  F  F60  1  0.21963905  0.42994927  0.94581150  1
  F  F61  1  0.78036095  0.57005073  0.94581150  1
  F  F62  1  0.44579733  0.00000000  0.17198770  1
  F  F63  1  0.55420267  0.00000000  0.17198770  1
  F  F64  1  0.00000000  0.44579733  0.17198770  1
  F  F65  1  0.00000000  0.55420267  0.17198770  1
  F  F66  1  0.55420267  0.00000000  0.82801230  1
  F  F67  1  0.44579733  0.00000000  0.82801230  1
  F  F68  1  0.00000000  0.44579733  0.82801230  1
  F  F69  1  0.00000000  0.55420267  0.82801230  1
  F  F70  1  0.00000000  0.00000000  0.36531982  1
  F  F71  1  0.00000000  0.00000000  0.63468018  1
  Li  Li72  1  0.63458020  0.50000000  0.08476764  1
  Li  Li73  1  0.36541980  0.50000000  0.08476764  1
  Li  Li74  1  0.50000000  0.63458020  0.08476764  1
  Li  Li75  1  0.50000000  0.36541980  0.08476764  1
  Li  Li76  1  0.36541980  0.50000000  0.91523236  1
  Li  Li77  1  0.63458020  0.50000000  0.91523236  1
  Li  Li78  1  0.50000000  0.63458020  0.91523236  1
  Li  Li79  1  0.50000000  0.36541980  0.91523236  1
  Li  Li80  1  0.19850495  0.50000000  0.21336423  1
  Li  Li81  1  0.80149505  0.50000000  0.21336423  1
  Li  Li82  1  0.50000000  0.19850495  0.21336423  1
  Li  Li83  1  0.50000000  0.80149505  0.21336423  1
  Li  Li84  1  0.80149505  0.50000000  0.78663577  1
  Li  Li85  1  0.19850495  0.50000000  0.78663577  1
  Li  Li86  1  0.50000000  0.19850495  0.78663577  1
  Li  Li87  1  0.50000000  0.80149505  0.78663577  1
  Li  Li88  1  0.00000000  0.00000000  0.75774400  1
  Li  Li89  1  0.00000000  0.00000000  0.24225600  1
