# generated using pymatgen
data_Li2YTiSF
_symmetry_space_group_name_H-M   'P 1'
_cell_length_a   3.14699623
_cell_length_b   3.04290258
_cell_length_c   4.73969682
_cell_angle_alpha   93.90653377
_cell_angle_beta   105.36193655
_cell_angle_gamma   109.50400973
_symmetry_Int_Tables_number   1
_chemical_formula_structural   Li2YTiSF
_chemical_formula_sum   'Li2 Y1 Ti1 S1 F1'
_cell_volume   40.63765837
_cell_formula_units_Z   1
loop_
 _symmetry_equiv_pos_site_id
 _symmetry_equiv_pos_as_xyz
  1  'x, y, z'
loop_
 _atom_site_type_symbol
 _atom_site_label
 _atom_site_symmetry_multiplicity
 _atom_site_fract_x
 _atom_site_fract_y
 _atom_site_fract_z
 _atom_site_occupancy
  F  F0  1  0.12500000  0.00000000  0.25000000  1
  Li  Li1  1  0.00000000  0.00000000  0.00000000  1
  Li  Li2  1  0.37500000  0.00000000  0.25000000  1
  S  S3  1  0.25000000  0.25000000  0.25000000  1
  Ti  Ti4  1  0.00000000  0.25000000  0.12500000  1
  Y  Y5  1  0.42501231  0.44451276  0.93963058  1
