# generated using pymatgen
data_LiF
_symmetry_space_group_name_H-M   'P 1'
_cell_length_a   10.06191908
_cell_length_b   10.06191908
_cell_length_c   11.91017320
_cell_angle_alpha   90.00000000
_cell_angle_beta   90.00000000
_cell_angle_gamma   90.00000000
_symmetry_Int_Tables_number   1
_chemical_formula_structural   LiF
_chemical_formula_sum   'Li64 F64'
_cell_volume   1205.81232272
_cell_formula_units_Z   64
loop_
 _symmetry_equiv_pos_site_id
 _symmetry_equiv_pos_as_xyz
  1  'x, y, z'
loop_
 _atom_site_type_symbol
 _atom_site_label
 _atom_site_symmetry_multiplicity
 _atom_site_fract_x
 _atom_site_fract_y
 _atom_site_fract_z
 _atom_site_occupancy
  F  F0  1  0.00000000  0.25000000  0.37500000  1
  F  F1  1  0.00000000  0.75000000  0.62500000  1
  F  F2  1  0.50000000  0.25000000  0.62500000  1
  F  F3  1  0.50000000  0.75000000  0.37500000  1
  F  F4  1  0.50000000  0.75000000  0.87500000  1
  F  F5  1  0.50000000  0.25000000  0.12500000  1
  F  F6  1  0.00000000  0.75000000  0.12500000  1
  F  F7  1  0.00000000  0.25000000  0.87500000  1
  F  F8  1  0.00000000  0.00000000  0.00000000  1
  F  F9  1  0.50000000  0.00000000  0.50000000  1
  F  F10  1  0.25000000  0.75000000  0.25000000  1
  F  F11  1  0.25000000  0.25000000  0.75000000  1
  F  F12  1  0.50000000  0.00000000  0.00000000  1
  F  F13  1  0.00000000  0.00000000  0.50000000  1
  F  F14  1  0.25000000  0.75000000  0.75000000  1
  F  F15  1  0.25000000  0.25000000  0.25000000  1
  F  F16  1  0.50000000  0.50000000  0.50000000  1
  F  F17  1  0.00000000  0.50000000  0.00000000  1
  F  F18  1  0.75000000  0.25000000  0.75000000  1
  F  F19  1  0.75000000  0.75000000  0.25000000  1
  F  F20  1  0.00000000  0.50000000  0.50000000  1
  F  F21  1  0.50000000  0.50000000  0.00000000  1
  F  F22  1  0.75000000  0.25000000  0.25000000  1
  F  F23  1  0.75000000  0.75000000  0.75000000  1
  F  F24  1  0.98876837  0.03881108  0.30542391  1
  F  F25  1  0.51123163  0.96118892  0.80542391  1
  F  F26  1  0.21118892  0.73876837  0.55542391  1
  F  F27  1  0.28881108  0.26123163  0.05542391  1
  F  F28  1  0.51123163  0.03881108  0.69457609  1
  F  F29  1  0.98876837  0.96118892  0.19457609  1
  F  F30  1  0.28881108  0.73876837  0.44457609  1
  F  F31  1  0.21118892  0.26123163  0.94457609  1
  F  F32  1  0.01123163  0.96118892  0.69457609  1
  F  F33  1  0.48876837  0.03881108  0.19457609  1
  F  F34  1  0.78881108  0.26123163  0.44457609  1
  F  F35  1  0.71118892  0.73876837  0.94457609  1
  F  F36  1  0.48876837  0.96118892  0.30542391  1
  F  F37  1  0.01123163  0.03881108  0.80542391  1
  F  F38  1  0.71118892  0.26123163  0.55542391  1
  F  F39  1  0.78881108  0.73876837  0.05542391  1
  F  F40  1  0.48876837  0.53881108  0.80542391  1
  F  F41  1  0.01123163  0.46118892  0.30542391  1
  F  F42  1  0.71118892  0.23876837  0.05542391  1
  F  F43  1  0.78881108  0.76123163  0.55542391  1
  F  F44  1  0.01123163  0.53881108  0.19457609  1
  F  F45  1  0.48876837  0.46118892  0.69457609  1
  F  F46  1  0.78881108  0.23876837  0.94457609  1
  F  F47  1  0.71118892  0.76123163  0.44457609  1
  F  F48  1  0.51123163  0.46118892  0.19457609  1
  F  F49  1  0.98876837  0.53881108  0.69457609  1
  F  F50  1  0.28881108  0.76123163  0.94457609  1
  F  F51  1  0.21118892  0.23876837  0.44457609  1
  F  F52  1  0.98876837  0.46118892  0.80542391  1
  F  F53  1  0.51123163  0.53881108  0.30542391  1
  F  F54  1  0.21118892  0.76123163  0.05542391  1
  F  F55  1  0.28881108  0.23876837  0.55542391  1
  F  F56  1  0.00000000  0.25000000  0.12500000  1
  F  F57  1  0.00000000  0.75000000  0.37500000  1
  F  F58  1  0.00000000  0.75000000  0.87500000  1
  F  F59  1  0.00000000  0.25000000  0.62500000  1
  F  F60  1  0.50000000  0.75000000  0.62500000  1
  F  F61  1  0.50000000  0.25000000  0.87500000  1
  F  F62  1  0.50000000  0.25000000  0.37500000  1
  F  F63  1  0.50000000  0.75000000  0.12500000  1
  Li  Li64  1  0.22378725  0.88069421  0.22812282  1
  Li  Li65  1  0.27621275  -0.88069421  0.72812282  1
  Li  Li66  1  -0.63069421  0.97378725  0.47812282  1
  Li  Li67  1  1.13069421  0.02621275  0.97812282  1
  Li  Li68  1  0.27621275  0.88069421  -0.22812282  1
  Li  Li69  1  0.22378725  -0.88069421  0.27187718  1
  Li  Li70  1  1.13069421  0.97378725  0.52187718  1
  Li  Li71  1  -0.63069421  0.02621275  0.02187718  1
  Li  Li72  1  -0.22378725  -0.88069421  -0.22812282  1
  Li  Li73  1  0.72378725  0.88069421  0.27187718  1
  Li  Li74  1  1.63069421  0.02621275  0.52187718  1
  Li  Li75  1  -0.13069421  0.97378725  0.02187718  1
  Li  Li76  1  0.72378725  -0.88069421  0.22812282  1
  Li  Li77  1  -0.22378725  0.88069421  0.72812282  1
  Li  Li78  1  -0.13069421  0.02621275  0.47812282  1
  Li  Li79  1  1.63069421  0.97378725  0.97812282  1
  Li  Li80  1  0.72378725  1.38069421  0.72812282  1
  Li  Li81  1  0.77621275  -0.38069421  1.22812282  1
  Li  Li82  1  -0.13069421  1.47378725  0.97812282  1
  Li  Li83  1  1.63069421  0.52621275  1.47812282  1
  Li  Li84  1  0.77621275  1.38069421  0.27187718  1
  Li  Li85  1  0.72378725  -0.38069421  0.77187718  1
  Li  Li86  1  1.63069421  1.47378725  1.02187718  1
  Li  Li87  1  -0.13069421  0.52621275  0.52187718  1
  Li  Li88  1  0.27621275  -0.38069421  0.27187718  1
  Li  Li89  1  1.22378725  1.38069421  0.77187718  1
  Li  Li90  1  2.13069421  0.52621275  1.02187718  1
  Li  Li91  1  0.36930579  1.47378725  0.52187718  1
  Li  Li92  1  1.22378725  -0.38069421  0.72812282  1
  Li  Li93  1  0.27621275  1.38069421  1.22812282  1
  Li  Li94  1  0.36930579  0.52621275  0.97812282  1
  Li  Li95  1  2.13069421  1.47378725  1.47812282  1
  Li  Li96  1  0.39350836  0.67553785  0.22708941  1
  Li  Li97  1  0.10649164  0.32446215  0.72708941  1
  Li  Li98  1  0.57446215  0.14350836  0.47708941  1
  Li  Li99  1  0.92553785  0.85649164  0.97708941  1
  Li  Li100  1  0.10649164  0.67553785  0.77291059  1
  Li  Li101  1  0.39350836  0.32446215  0.27291059  1
  Li  Li102  1  0.92553785  0.14350836  0.52291059  1
  Li  Li103  1  0.57446215  0.85649164  0.02291059  1
  Li  Li104  1  0.60649164  0.32446215  0.77291059  1
  Li  Li105  1  0.89350836  0.67553785  0.27291059  1
  Li  Li106  1  0.42553785  0.85649164  0.52291059  1
  Li  Li107  1  0.07446215  0.14350836  0.02291059  1
  Li  Li108  1  0.89350836  0.32446215  0.22708941  1
  Li  Li109  1  0.60649164  0.67553785  0.72708941  1
  Li  Li110  1  0.07446215  0.85649164  0.47708941  1
  Li  Li111  1  0.42553785  0.14350836  0.97708941  1
  Li  Li112  1  0.89350836  0.17553785  0.72708941  1
  Li  Li113  1  0.60649164  0.82446215  0.22708941  1
  Li  Li114  1  0.07446215  0.64350836  0.97708941  1
  Li  Li115  1  0.42553785  0.35649164  0.47708941  1
  Li  Li116  1  0.60649164  0.17553785  0.27291059  1
  Li  Li117  1  0.89350836  0.82446215  0.77291059  1
  Li  Li118  1  0.42553785  0.64350836  0.02291059  1
  Li  Li119  1  0.07446215  0.35649164  0.52291059  1
  Li  Li120  1  0.10649164  0.82446215  0.27291059  1
  Li  Li121  1  0.39350836  0.17553785  0.77291059  1
  Li  Li122  1  0.92553785  0.35649164  0.02291059  1
  Li  Li123  1  0.57446215  0.64350836  0.52291059  1
  Li  Li124  1  0.39350836  0.82446215  0.72708941  1
  Li  Li125  1  0.10649164  0.17553785  0.22708941  1
  Li  Li126  1  0.57446215  0.35649164  0.97708941  1
  Li  Li127  1  0.92553785  0.64350836  0.47708941  1
