# generated using pymatgen
data_LiTiOF
_symmetry_space_group_name_H-M   'P 1'
_cell_length_a   3.25849972
_cell_length_b   2.95910733
_cell_length_c   5.53442642
_cell_angle_alpha   104.67239118
_cell_angle_beta   100.59545412
_cell_angle_gamma   100.53799602
_symmetry_Int_Tables_number   1
_chemical_formula_structural   LiTiOF
_chemical_formula_sum   'Li1 Ti1 O1 F1'
_cell_volume   49.24432998
_cell_formula_units_Z   1
loop_
 _symmetry_equiv_pos_site_id
 _symmetry_equiv_pos_as_xyz
  1  'x, y, z'
loop_
 _atom_site_type_symbol
 _atom_site_label
 _atom_site_symmetry_multiplicity
 _atom_site_fract_x
 _atom_site_fract_y
 _atom_site_fract_z
 _atom_site_occupancy
  F  F0  1  0.12500000  0.12500000  0.12500000  1
  Li  Li1  1  0.50000000  0.50000000  0.50000000  1
  O  O2  1  0.25000000  0.25000000  0.25000000  1
  Ti  Ti3  1  0.75000000  0.75000000  0.75000000  1
