# generated using pymatgen
data_Li2Ca3F8
_symmetry_space_group_name_H-M   'P 1'
_cell_length_a   10.37488835
_cell_length_b   10.37488835
_cell_length_c   17.56799470
_cell_angle_alpha   90.00000000
_cell_angle_beta   90.00000000
_cell_angle_gamma   90.00000000
_symmetry_Int_Tables_number   1
_chemical_formula_structural   Li2Ca3F8
_chemical_formula_sum   'Li16 Ca24 F64'
_cell_volume   1890.98922786
_cell_formula_units_Z   8
loop_
 _symmetry_equiv_pos_site_id
 _symmetry_equiv_pos_as_xyz
  1  'x, y, z'
loop_
 _atom_site_type_symbol
 _atom_site_label
 _atom_site_symmetry_multiplicity
 _atom_site_fract_x
 _atom_site_fract_y
 _atom_site_fract_z
 _atom_site_occupancy
  Ca  Ca0  1  0.00000000  0.25000000  0.75094794  1
  Ca  Ca1  1  0.00000000  0.75000000  0.00094794  1
  Ca  Ca2  1  0.50000000  0.25000000  0.24905206  1
  Ca  Ca3  1  0.50000000  0.75000000  0.99905206  1
  Ca  Ca4  1  0.00000000  0.75000000  0.24905206  1
  Ca  Ca5  1  0.00000000  0.25000000  0.99905206  1
  Ca  Ca6  1  0.50000000  0.75000000  0.75094794  1
  Ca  Ca7  1  0.50000000  0.25000000  0.00094794  1
  Ca  Ca8  1  0.50000000  0.75000000  0.25094794  1
  Ca  Ca9  1  0.50000000  0.25000000  0.50094794  1
  Ca  Ca10  1  0.00000000  0.75000000  0.74905206  1
  Ca  Ca11  1  0.00000000  0.25000000  0.49905206  1
  Ca  Ca12  1  0.50000000  0.25000000  0.74905206  1
  Ca  Ca13  1  0.50000000  0.75000000  0.49905206  1
  Ca  Ca14  1  0.00000000  0.25000000  0.25094794  1
  Ca  Ca15  1  0.00000000  0.75000000  0.50094794  1
  Ca  Ca16  1  0.00000000  0.25000000  0.12500000  1
  Ca  Ca17  1  0.00000000  0.75000000  0.37500000  1
  Ca  Ca18  1  0.00000000  0.75000000  0.87500000  1
  Ca  Ca19  1  0.00000000  0.25000000  0.62500000  1
  Ca  Ca20  1  0.50000000  0.75000000  0.62500000  1
  Ca  Ca21  1  0.50000000  0.25000000  0.87500000  1
  Ca  Ca22  1  0.50000000  0.25000000  0.37500000  1
  Ca  Ca23  1  0.50000000  0.75000000  0.12500000  1
  F  F24  1  0.18152434  0.52080709  0.38038467  1
  F  F25  1  0.31847566  -0.52080709  0.88038467  1
  F  F26  1  -0.27080709  0.93152434  0.63038467  1
  F  F27  1  0.77080709  0.06847566  1.13038467  1
  F  F28  1  0.31847566  0.52080709  -0.38038467  1
  F  F29  1  0.18152434  -0.52080709  0.11961533  1
  F  F30  1  0.77080709  0.93152434  0.36961533  1
  F  F31  1  -0.27080709  0.06847566  -0.13038467  1
  F  F32  1  -0.18152434  -0.52080709  -0.38038467  1
  F  F33  1  0.68152434  0.52080709  0.11961533  1
  F  F34  1  1.27080709  0.06847566  0.36961533  1
  F  F35  1  0.22919291  0.93152434  -0.13038467  1
  F  F36  1  0.68152434  -0.52080709  0.38038467  1
  F  F37  1  -0.18152434  0.52080709  0.88038467  1
  F  F38  1  0.22919291  0.06847566  0.63038467  1
  F  F39  1  1.27080709  0.93152434  1.13038467  1
  F  F40  1  0.68152434  1.02080709  0.88038467  1
  F  F41  1  0.81847566  -0.02080709  1.38038467  1
  F  F42  1  0.22919291  1.43152434  1.13038467  1
  F  F43  1  1.27080709  0.56847566  1.63038467  1
  F  F44  1  0.81847566  1.02080709  0.11961533  1
  F  F45  1  0.68152434  -0.02080709  0.61961533  1
  F  F46  1  1.27080709  1.43152434  0.86961533  1
  F  F47  1  0.22919291  0.56847566  0.36961533  1
  F  F48  1  0.31847566  -0.02080709  0.11961533  1
  F  F49  1  1.18152434  1.02080709  0.61961533  1
  F  F50  1  1.77080709  0.56847566  0.86961533  1
  F  F51  1  0.72919291  1.43152434  0.36961533  1
  F  F52  1  1.18152434  -0.02080709  0.88038467  1
  F  F53  1  0.31847566  1.02080709  1.38038467  1
  F  F54  1  0.72919291  0.56847566  1.13038467  1
  F  F55  1  1.77080709  1.43152434  1.63038467  1
  F  F56  1  0.95204916  0.54899696  0.47474254  1
  F  F57  1  0.54795084  0.45100304  0.97474254  1
  F  F58  1  0.70100304  0.70204916  0.72474254  1
  F  F59  1  0.79899696  0.29795084  0.22474254  1
  F  F60  1  0.54795084  0.54899696  0.52525746  1
  F  F61  1  0.95204916  0.45100304  0.02525746  1
  F  F62  1  0.79899696  0.70204916  0.27525746  1
  F  F63  1  0.70100304  0.29795084  0.77525746  1
  F  F64  1  0.04795084  0.45100304  0.52525746  1
  F  F65  1  0.45204916  0.54899696  0.02525746  1
  F  F66  1  0.29899696  0.29795084  0.27525746  1
  F  F67  1  0.20100304  0.70204916  0.77525746  1
  F  F68  1  0.45204916  0.45100304  0.47474254  1
  F  F69  1  0.04795084  0.54899696  0.97474254  1
  F  F70  1  0.20100304  0.29795084  0.72474254  1
  F  F71  1  0.29899696  0.70204916  0.22474254  1
  F  F72  1  0.45204916  0.04899696  0.97474254  1
  F  F73  1  0.04795084  0.95100304  0.47474254  1
  F  F74  1  0.20100304  0.20204916  0.22474254  1
  F  F75  1  0.29899696  0.79795084  0.72474254  1
  F  F76  1  0.04795084  0.04899696  0.02525746  1
  F  F77  1  0.45204916  0.95100304  0.52525746  1
  F  F78  1  0.29899696  0.20204916  0.77525746  1
  F  F79  1  0.20100304  0.79795084  0.27525746  1
  F  F80  1  0.54795084  0.95100304  0.02525746  1
  F  F81  1  0.95204916  0.04899696  0.52525746  1
  F  F82  1  0.79899696  0.79795084  0.77525746  1
  F  F83  1  0.70100304  0.20204916  0.27525746  1
  F  F84  1  0.95204916  0.95100304  0.97474254  1
  F  F85  1  0.54795084  0.04899696  0.47474254  1
  F  F86  1  0.70100304  0.79795084  0.22474254  1
  F  F87  1  0.79899696  0.20204916  0.72474254  1
  Li  Li88  1  0.00000000  0.25000000  0.83827770  1
  Li  Li89  1  0.00000000  0.75000000  0.08827770  1
  Li  Li90  1  0.50000000  0.25000000  0.16172230  1
  Li  Li91  1  0.50000000  0.75000000  0.91172230  1
  Li  Li92  1  0.00000000  0.75000000  0.16172230  1
  Li  Li93  1  0.00000000  0.25000000  0.91172230  1
  Li  Li94  1  0.50000000  0.75000000  0.83827770  1
  Li  Li95  1  0.50000000  0.25000000  0.08827770  1
  Li  Li96  1  0.50000000  0.75000000  0.33827770  1
  Li  Li97  1  0.50000000  0.25000000  0.58827770  1
  Li  Li98  1  0.00000000  0.75000000  0.66172230  1
  Li  Li99  1  0.00000000  0.25000000  0.41172230  1
  Li  Li100  1  0.50000000  0.25000000  0.66172230  1
  Li  Li101  1  0.50000000  0.75000000  0.41172230  1
  Li  Li102  1  0.00000000  0.25000000  0.33827770  1
  Li  Li103  1  0.00000000  0.75000000  0.58827770  1
