# generated using pymatgen
data_LiF
_symmetry_space_group_name_H-M   'P 1'
_cell_length_a   7.08006470
_cell_length_b   7.08006470
_cell_length_c   10.47799812
_cell_angle_alpha   90.00000000
_cell_angle_beta   90.00000000
_cell_angle_gamma   120.00000000
_symmetry_Int_Tables_number   1
_chemical_formula_structural   LiF
_chemical_formula_sum   'Li13 F13'
_cell_volume   454.86592188
_cell_formula_units_Z   13
loop_
 _symmetry_equiv_pos_site_id
 _symmetry_equiv_pos_as_xyz
  1  'x, y, z'
loop_
 _atom_site_type_symbol
 _atom_site_label
 _atom_site_symmetry_multiplicity
 _atom_site_fract_x
 _atom_site_fract_y
 _atom_site_fract_z
 _atom_site_occupancy
  F  F0  1  0.66666667  0.33333333  0.50000000  1
  F  F1  1  0.33333333  0.66666667  0.50000000  1
  F  F2  1  0.66666667  0.33333333  0.06448355  1
  F  F3  1  0.66666667  0.33333333  0.93551645  1
  F  F4  1  0.20449266  0.86904498  0.74730949  1
  F  F5  1  0.13095502  0.33544768  0.74730949  1
  F  F6  1  0.66455232  0.79550734  0.74730949  1
  F  F7  1  0.13095502  0.79550734  0.25269051  1
  F  F8  1  0.66455232  0.86904498  0.25269051  1
  F  F9  1  0.20449266  0.33544768  0.25269051  1
  F  F10  1  0.00000000  0.00000000  0.32335745  1
  F  F11  1  0.00000000  0.00000000  0.67664255  1
  F  F12  1  0.33333333  0.66666667  -0.00000000  1
  Li  Li13  1  0.01090068  0.81688598  0.29114600  1
  Li  Li14  1  -0.81688598  -0.80598531  0.29114600  1
  Li  Li15  1  0.80598531  -0.01090068  0.29114600  1
  Li  Li16  1  -0.81688598  -0.01090068  -0.29114600  1
  Li  Li17  1  0.80598531  0.81688598  -0.29114600  1
  Li  Li18  1  0.01090068  -0.80598531  -0.29114600  1
  Li  Li19  1  0.00000000  0.00000000  0.50000000  1
  Li  Li20  1  0.84007165  0.80704111  0.17921851  1
  Li  Li21  1  0.19295889  0.03303054  0.17921851  1
  Li  Li22  1  0.96696946  0.15992835  0.17921851  1
  Li  Li23  1  0.19295889  0.15992835  0.82078149  1
  Li  Li24  1  0.96696946  0.80704111  0.82078149  1
  Li  Li25  1  0.84007165  0.03303054  0.82078149  1
