# generated using pymatgen
data_LiMoP2Se
_symmetry_space_group_name_H-M   'P 1'
_cell_length_a   5.19438579
_cell_length_b   5.46105342
_cell_length_c   6.82919914
_cell_angle_alpha   93.36822524
_cell_angle_beta   97.00090360
_cell_angle_gamma   102.82838768
_symmetry_Int_Tables_number   1
_chemical_formula_structural   LiMoP2Se
_chemical_formula_sum   'Li1 Mo1 P2 Se1'
_cell_volume   186.74041083
_cell_formula_units_Z   1
loop_
 _symmetry_equiv_pos_site_id
 _symmetry_equiv_pos_as_xyz
  1  'x, y, z'
loop_
 _atom_site_type_symbol
 _atom_site_label
 _atom_site_symmetry_multiplicity
 _atom_site_fract_x
 _atom_site_fract_y
 _atom_site_fract_z
 _atom_site_occupancy
  Se  Se0  1  0.12500000  0.12500000  0.12500000  1
  P  P1  1  0.50000000  0.50000000  0.50000000  1
  P  P2  1  0.25000000  0.25000000  0.25000000  1
  Mo  Mo3  1  0.75000000  0.75000000  0.75000000  1
  Li  Li4  1  0.06266880  0.89072824  0.17491266  1
