# generated using pymatgen
data_LiF
_symmetry_space_group_name_H-M   'P 1'
_cell_length_a   10.35918412
_cell_length_b   8.78436193
_cell_length_c   6.54688599
_cell_angle_alpha   90.00000000
_cell_angle_beta   90.00000000
_cell_angle_gamma   90.00000000
_symmetry_Int_Tables_number   1
_chemical_formula_structural   LiF
_chemical_formula_sum   'Li24 F24'
_cell_volume   595.75891697
_cell_formula_units_Z   24
loop_
 _symmetry_equiv_pos_site_id
 _symmetry_equiv_pos_as_xyz
  1  'x, y, z'
loop_
 _atom_site_type_symbol
 _atom_site_label
 _atom_site_symmetry_multiplicity
 _atom_site_fract_x
 _atom_site_fract_y
 _atom_site_fract_z
 _atom_site_occupancy
  F  F0  1  0.00000000  0.50000000  0.50000000  1
  F  F1  1  0.50000000  0.00000000  0.00000000  1
  F  F2  1  0.00000000  0.00000000  0.75032848  1
  F  F3  1  0.50000000  0.50000000  0.74967152  1
  F  F4  1  0.00000000  0.00000000  0.24967152  1
  F  F5  1  0.50000000  0.50000000  0.25032848  1
  F  F6  1  0.97338234  0.12191496  0.00000000  1
  F  F7  1  0.02661766  0.87808504  0.00000000  1
  F  F8  1  0.52661766  0.62191496  0.50000000  1
  F  F9  1  0.47338234  0.37808504  0.50000000  1
  F  F10  1  0.00000000  0.00000000  0.00000000  1
  F  F11  1  0.50000000  0.50000000  0.50000000  1
  F  F12  1  0.65711431  0.66010965  0.67968437  1
  F  F13  1  -0.65711431  -0.66010965  0.67968437  1
  F  F14  1  -0.15711431  1.16010965  -0.17968437  1
  F  F15  1  1.15711431  -0.16010965  -0.17968437  1
  F  F16  1  -0.65711431  -0.66010965  -0.67968437  1
  F  F17  1  0.65711431  0.66010965  -0.67968437  1
  F  F18  1  1.15711431  -0.16010965  1.17968437  1
  F  F19  1  -0.15711431  1.16010965  1.17968437  1
  F  F20  1  0.51374707  0.08235535  0.00000000  1
  F  F21  1  0.48625293  0.91764465  0.00000000  1
  F  F22  1  0.98625293  0.58235535  0.50000000  1
  F  F23  1  0.01374707  0.41764465  0.50000000  1
  Li  Li24  1  0.65626821  0.14842841  -0.00000000  1
  Li  Li25  1  0.34373179  0.85157159  0.00000000  1
  Li  Li26  1  0.84373179  0.64842841  0.50000000  1
  Li  Li27  1  0.15626821  0.35157159  0.50000000  1
  Li  Li28  1  0.46662947  0.24364312  0.00000000  1
  Li  Li29  1  0.53337053  0.75635688  0.00000000  1
  Li  Li30  1  0.03337053  0.74364312  0.50000000  1
  Li  Li31  1  0.96662947  0.25635688  0.50000000  1
  Li  Li32  1  0.00000000  0.00000000  0.50000000  1
  Li  Li33  1  0.50000000  0.50000000  0.00000000  1
  Li  Li34  1  0.76883620  0.88469001  -0.00000000  1
  Li  Li35  1  0.23116380  0.11530999  -0.00000000  1
  Li  Li36  1  0.73116380  0.38469001  0.50000000  1
  Li  Li37  1  0.26883620  0.61530999  0.50000000  1
  Li  Li38  1  0.89121592  0.02788808  0.72991190  1
  Li  Li39  1  0.10878408  0.97211192  0.72991190  1
  Li  Li40  1  0.60878408  0.52788808  0.77008810  1
  Li  Li41  1  0.39121592  0.47211192  0.77008810  1
  Li  Li42  1  0.10878408  0.97211192  0.27008810  1
  Li  Li43  1  0.89121592  0.02788808  0.27008810  1
  Li  Li44  1  0.39121592  0.47211192  0.22991190  1
  Li  Li45  1  0.60878408  0.52788808  0.22991190  1
  Li  Li46  1  0.00000000  0.50000000  0.00000000  1
  Li  Li47  1  0.50000000  0.00000000  0.50000000  1
