# generated using pymatgen
data_Li2Y2As4P3
_symmetry_space_group_name_H-M   'P 1'
_cell_length_a   4.40094683
_cell_length_b   4.51956673
_cell_length_c   6.76191973
_cell_angle_alpha   95.77845202
_cell_angle_beta   102.58426717
_cell_angle_gamma   113.20974514
_symmetry_Int_Tables_number   1
_chemical_formula_structural   Li2Y2As4P3
_chemical_formula_sum   'Li2 Y2 As4 P3'
_cell_volume   118.00464105
_cell_formula_units_Z   1
loop_
 _symmetry_equiv_pos_site_id
 _symmetry_equiv_pos_as_xyz
  1  'x, y, z'
loop_
 _atom_site_type_symbol
 _atom_site_label
 _atom_site_symmetry_multiplicity
 _atom_site_fract_x
 _atom_site_fract_y
 _atom_site_fract_z
 _atom_site_occupancy
  P  P0  1  0.00000000  0.00000000  0.00000000  1
  P  P1  1  0.50000000  0.50000000  0.50000000  1
  P  P2  1  0.25000000  0.25000000  0.25000000  1
  As  As3  1  0.75000000  0.25000000  0.00000000  1
  As  As4  1  0.25000000  0.75000000  0.50000000  1
  As  As5  1  0.70228674  0.92163936  0.57452448  1
  As  As6  1  0.86600170  0.03825527  0.83098800  1
  Li  Li7  1  0.09555535  0.14091002  0.01638056  1
  Li  Li8  1  0.79528869  0.32078538  0.68690171  1
  Y  Y9  1  0.93571868  0.71143722  0.25380582  1
  Y  Y10  1  0.44406783  0.91804645  0.57124781  1
