# generated using pymatgen
data_LiF
_symmetry_space_group_name_H-M   'P 1'
_cell_length_a   9.56233698
_cell_length_b   7.03050974
_cell_length_c   8.05075935
_cell_angle_alpha   90.00000000
_cell_angle_beta   90.00000000
_cell_angle_gamma   90.00000000
_symmetry_Int_Tables_number   1
_chemical_formula_structural   LiF
_chemical_formula_sum   'Li24 F24'
_cell_volume   541.23728112
_cell_formula_units_Z   24
loop_
 _symmetry_equiv_pos_site_id
 _symmetry_equiv_pos_as_xyz
  1  'x, y, z'
loop_
 _atom_site_type_symbol
 _atom_site_label
 _atom_site_symmetry_multiplicity
 _atom_site_fract_x
 _atom_site_fract_y
 _atom_site_fract_z
 _atom_site_occupancy
  F  F0  1  0.43361390  0.67583547  0.94452725  1
  F  F1  1  0.06638610  0.32416453  0.44452725  1
  F  F2  1  0.56638610  0.17583547  0.05547275  1
  F  F3  1  0.93361390  0.82416453  0.55547275  1
  F  F4  1  0.56638610  0.32416453  0.05547275  1
  F  F5  1  0.93361390  0.67583547  0.55547275  1
  F  F6  1  0.43361390  0.82416453  0.94452725  1
  F  F7  1  0.06638610  0.17583547  0.44452725  1
  F  F8  1  0.80230765  0.16274086  0.15256644  1
  F  F9  1  0.69769235  0.83725914  0.65256644  1
  F  F10  1  0.19769235  0.66274086  0.84743356  1
  F  F11  1  0.30230765  0.33725914  0.34743356  1
  F  F12  1  0.19769235  0.83725914  0.84743356  1
  F  F13  1  0.30230765  0.16274086  0.34743356  1
  F  F14  1  0.80230765  0.33725914  0.15256644  1
  F  F15  1  0.69769235  0.66274086  0.65256644  1
  F  F16  1  0.00000000  0.00000000  0.50000000  1
  F  F17  1  0.50000000  0.00000000  0.00000000  1
  F  F18  1  0.00000000  0.50000000  0.50000000  1
  F  F19  1  0.50000000  0.50000000  0.00000000  1
  F  F20  1  0.52376344  0.25000000  0.95601297  1
  F  F21  1  0.97623656  0.75000000  0.45601297  1
  F  F22  1  0.47623656  0.75000000  0.04398703  1
  F  F23  1  0.02376344  0.25000000  0.54398703  1
  Li  Li24  1  0.82469973  0.44535801  0.29537808  1
  Li  Li25  1  -0.32469973  -0.44535801  0.79537808  1
  Li  Li26  1  -0.82469973  0.94535801  -0.29537808  1
  Li  Li27  1  1.32469973  0.05464199  0.20462192  1
  Li  Li28  1  -0.82469973  -0.44535801  -0.29537808  1
  Li  Li29  1  1.32469973  0.44535801  0.20462192  1
  Li  Li30  1  0.82469973  0.05464199  0.29537808  1
  Li  Li31  1  -0.32469973  0.94535801  0.79537808  1
  Li  Li32  1  0.00000000  0.00000000  0.00000000  1
  Li  Li33  1  0.50000000  0.00000000  0.50000000  1
  Li  Li34  1  0.00000000  0.50000000  0.00000000  1
  Li  Li35  1  0.50000000  0.50000000  0.50000000  1
  Li  Li36  1  0.10572016  0.99144123  0.32030029  1
  Li  Li37  1  0.39427984  0.00855877  0.82030029  1
  Li  Li38  1  0.89427984  0.49144123  0.67969971  1
  Li  Li39  1  0.60572016  0.50855877  0.17969971  1
  Li  Li40  1  0.89427984  0.00855877  0.67969971  1
  Li  Li41  1  0.60572016  0.99144123  0.17969971  1
  Li  Li42  1  0.10572016  0.50855877  0.32030029  1
  Li  Li43  1  0.39427984  0.49144123  0.82030029  1
  Li  Li44  1  0.67621941  0.25000000  0.27305314  1
  Li  Li45  1  0.82378059  0.75000000  0.77305314  1
  Li  Li46  1  0.32378059  0.75000000  0.72694686  1
  Li  Li47  1  0.17621941  0.25000000  0.22694686  1
