# generated using pymatgen
data_LiF
_symmetry_space_group_name_H-M   'P 1'
_cell_length_a   14.25854353
_cell_length_b   8.19436570
_cell_length_c   9.39234562
_cell_angle_alpha   90.00000000
_cell_angle_beta   90.00000000
_cell_angle_gamma   90.00000000
_symmetry_Int_Tables_number   1
_chemical_formula_structural   LiF
_chemical_formula_sum   'Li48 F48'
_cell_volume   1097.39903240
_cell_formula_units_Z   48
loop_
 _symmetry_equiv_pos_site_id
 _symmetry_equiv_pos_as_xyz
  1  'x, y, z'
loop_
 _atom_site_type_symbol
 _atom_site_label
 _atom_site_symmetry_multiplicity
 _atom_site_fract_x
 _atom_site_fract_y
 _atom_site_fract_z
 _atom_site_occupancy
  F  F0  1  0.26804702  0.11652254  0.50000000  1
  F  F1  1  0.73195298  0.88347746  0.50000000  1
  F  F2  1  0.23195298  0.61652254  0.50000000  1
  F  F3  1  0.76804702  0.38347746  0.50000000  1
  F  F4  1  0.34892905  0.14670542  0.72465602  1
  F  F5  1  0.65107095  0.85329458  0.72465602  1
  F  F6  1  0.15107095  0.64670542  0.27534398  1
  F  F7  1  0.84892905  0.35329458  0.27534398  1
  F  F8  1  0.65107095  0.85329458  0.27534398  1
  F  F9  1  0.34892905  0.14670542  0.27534398  1
  F  F10  1  0.84892905  0.35329458  0.72465602  1
  F  F11  1  0.15107095  0.64670542  0.72465602  1
  F  F12  1  0.24954589  0.67722974  0.23157140  1
  F  F13  1  0.75045411  0.32277026  0.23157140  1
  F  F14  1  0.25045411  0.17722974  0.76842860  1
  F  F15  1  0.74954589  0.82277026  0.76842860  1
  F  F16  1  0.75045411  0.32277026  0.76842860  1
  F  F17  1  0.24954589  0.67722974  0.76842860  1
  F  F18  1  0.74954589  0.82277026  0.23157140  1
  F  F19  1  0.25045411  0.17722974  0.23157140  1
  F  F20  1  0.56751786  0.73468945  0.00000000  1
  F  F21  1  0.43248214  0.26531055  0.00000000  1
  F  F22  1  0.93248214  0.23468945  0.00000000  1
  F  F23  1  0.06751786  0.76531055  -0.00000000  1
  F  F24  1  0.20757312  0.36257147  0.05020557  1
  F  F25  1  0.79242688  0.63742853  0.05020557  1
  F  F26  1  0.29242688  0.86257147  0.94979443  1
  F  F27  1  0.70757312  0.13742853  0.94979443  1
  F  F28  1  0.79242688  0.63742853  0.94979443  1
  F  F29  1  0.20757312  0.36257147  0.94979443  1
  F  F30  1  0.70757312  0.13742853  0.05020557  1
  F  F31  1  0.29242688  0.86257147  0.05020557  1
  F  F32  1  0.29071181  0.82451030  0.50000000  1
  F  F33  1  0.70928819  0.17548970  0.50000000  1
  F  F34  1  0.20928819  0.32451030  0.50000000  1
  F  F35  1  0.79071181  0.67548970  0.50000000  1
  F  F36  1  0.92184927  0.16874248  0.50000000  1
  F  F37  1  0.07815073  0.83125752  0.50000000  1
  F  F38  1  0.57815073  0.66874248  0.50000000  1
  F  F39  1  0.42184927  0.33125752  0.50000000  1
  F  F40  1  0.02869623  0.89338254  0.16986080  1
  F  F41  1  0.97130377  0.10661746  0.16986080  1
  F  F42  1  0.47130377  0.39338254  0.83013920  1
  F  F43  1  0.52869623  0.60661746  0.83013920  1
  F  F44  1  0.97130377  0.10661746  0.83013920  1
  F  F45  1  0.02869623  0.89338254  0.83013920  1
  F  F46  1  0.52869623  0.60661746  0.16986080  1
  F  F47  1  0.47130377  0.39338254  0.16986080  1
  Li  Li48  1  0.21638296  0.74047508  0.10775638  1
  Li  Li49  1  -0.21638296  -0.74047508  0.10775638  1
  Li  Li50  1  0.28361704  1.24047508  -0.10775638  1
  Li  Li51  1  0.71638296  -0.24047508  -0.10775638  1
  Li  Li52  1  -0.21638296  -0.74047508  -0.10775638  1
  Li  Li53  1  0.21638296  0.74047508  -0.10775638  1
  Li  Li54  1  0.71638296  -0.24047508  0.10775638  1
  Li  Li55  1  0.28361704  1.24047508  0.10775638  1
  Li  Li56  1  0.09397259  0.70354820  0.50000000  1
  Li  Li57  1  0.90602741  0.29645180  0.50000000  1
  Li  Li58  1  0.40602741  0.20354820  0.50000000  1
  Li  Li59  1  0.59397259  0.79645180  0.50000000  1
  Li  Li60  1  0.12808484  0.79230419  0.11590599  1
  Li  Li61  1  0.87191516  0.20769581  0.11590599  1
  Li  Li62  1  0.37191516  0.29230419  0.88409401  1
  Li  Li63  1  0.62808484  0.70769581  0.88409401  1
  Li  Li64  1  0.87191516  0.20769581  0.88409401  1
  Li  Li65  1  0.12808484  0.79230419  0.88409401  1
  Li  Li66  1  0.62808484  0.70769581  0.11590599  1
  Li  Li67  1  0.37191516  0.29230419  0.11590599  1
  Li  Li68  1  0.51044654  0.24207822  0.22336589  1
  Li  Li69  1  0.48955346  0.75792178  0.22336589  1
  Li  Li70  1  0.98955346  0.74207822  0.77663411  1
  Li  Li71  1  0.01044654  0.25792178  0.77663411  1
  Li  Li72  1  0.48955346  0.75792178  0.77663411  1
  Li  Li73  1  0.51044654  0.24207822  0.77663411  1
  Li  Li74  1  0.01044654  0.25792178  0.22336589  1
  Li  Li75  1  0.98955346  0.74207822  0.22336589  1
  Li  Li76  1  0.43267030  0.15115401  0.16045986  1
  Li  Li77  1  0.56732970  0.84884599  0.16045986  1
  Li  Li78  1  0.06732970  0.65115401  0.83954014  1
  Li  Li79  1  0.93267030  0.34884599  0.83954014  1
  Li  Li80  1  0.56732970  0.84884599  0.83954014  1
  Li  Li81  1  0.43267030  0.15115401  0.83954014  1
  Li  Li82  1  0.93267030  0.34884599  0.16045986  1
  Li  Li83  1  0.06732970  0.65115401  0.16045986  1
  Li  Li84  1  0.00000000  0.50000000  0.00000000  1
  Li  Li85  1  0.50000000  0.00000000  0.00000000  1
  Li  Li86  1  0.00000000  0.00000000  0.50000000  1
  Li  Li87  1  0.50000000  0.50000000  0.50000000  1
  Li  Li88  1  0.00000000  0.00000000  0.75148298  1
  Li  Li89  1  0.50000000  0.50000000  0.24851702  1
  Li  Li90  1  0.00000000  0.00000000  0.24851702  1
  Li  Li91  1  0.50000000  0.50000000  0.75148298  1
  Li  Li92  1  0.86945764  0.83316647  0.50000000  1
  Li  Li93  1  0.13054236  0.16683353  0.50000000  1
  Li  Li94  1  0.63054236  0.33316647  0.50000000  1
  Li  Li95  1  0.36945764  0.66683353  0.50000000  1
