# generated using pymatgen
data_LiF
_symmetry_space_group_name_H-M   'P 1'
_cell_length_a   7.39136314
_cell_length_b   8.24275383
_cell_length_c   14.64658149
_cell_angle_alpha   90.00000000
_cell_angle_beta   90.00000000
_cell_angle_gamma   90.00000000
_symmetry_Int_Tables_number   1
_chemical_formula_structural   LiF
_chemical_formula_sum   'Li28 F28'
_cell_volume   892.34571314
_cell_formula_units_Z   28
loop_
 _symmetry_equiv_pos_site_id
 _symmetry_equiv_pos_as_xyz
  1  'x, y, z'
loop_
 _atom_site_type_symbol
 _atom_site_label
 _atom_site_symmetry_multiplicity
 _atom_site_fract_x
 _atom_site_fract_y
 _atom_site_fract_z
 _atom_site_occupancy
  F  F0  1  0.01547321  0.80528942  0.37960863  1
  F  F1  1  0.98452679  0.19471058  0.37960863  1
  F  F2  1  0.48452679  0.30528942  0.62039137  1
  F  F3  1  0.51547321  0.69471058  0.62039137  1
  F  F4  1  0.98452679  0.19471058  0.62039137  1
  F  F5  1  0.01547321  0.80528942  0.62039137  1
  F  F6  1  0.51547321  0.69471058  0.37960863  1
  F  F7  1  0.48452679  0.30528942  0.37960863  1
  F  F8  1  0.37480737  0.39540028  0.87715047  1
  F  F9  1  0.62519263  0.60459972  0.87715047  1
  F  F10  1  0.12519263  0.89540028  0.12284953  1
  F  F11  1  0.87480737  0.10459972  0.12284953  1
  F  F12  1  0.62519263  0.60459972  0.12284953  1
  F  F13  1  0.37480737  0.39540028  0.12284953  1
  F  F14  1  0.87480737  0.10459972  0.87715047  1
  F  F15  1  0.12519263  0.89540028  0.87715047  1
  F  F16  1  0.63350616  0.56239419  0.84035603  1
  F  F17  1  0.36649384  0.43760581  0.84035603  1
  F  F18  1  0.86649384  0.06239419  0.15964397  1
  F  F19  1  0.13350616  0.93760581  0.15964397  1
  F  F20  1  0.36649384  0.43760581  0.15964397  1
  F  F21  1  0.63350616  0.56239419  0.15964397  1
  F  F22  1  0.13350616  0.93760581  0.84035603  1
  F  F23  1  0.86649384  0.06239419  0.84035603  1
  F  F24  1  0.00000000  0.50000000  0.50000000  1
  F  F25  1  0.50000000  -0.00000000  0.50000000  1
  F  F26  1  0.00000000  0.00000000  0.50000000  1
  F  F27  1  0.50000000  0.50000000  0.50000000  1
  Li  Li28  1  0.75155251  0.66057476  0.50000000  1
  Li  Li29  1  0.24844749  0.33942524  0.50000000  1
  Li  Li30  1  0.74844749  0.16057476  0.50000000  1
  Li  Li31  1  0.25155251  0.83942524  0.50000000  1
  Li  Li32  1  0.50016148  0.87863518  0.85258329  1
  Li  Li33  1  -0.50016148  -0.87863518  0.85258329  1
  Li  Li34  1  -0.00016148  1.37863518  -0.85258329  1
  Li  Li35  1  1.00016148  -0.37863518  -0.85258329  1
  Li  Li36  1  -0.50016148  -0.87863518  -0.85258329  1
  Li  Li37  1  0.50016148  0.87863518  -0.85258329  1
  Li  Li38  1  1.00016148  -0.37863518  0.85258329  1
  Li  Li39  1  -0.00016148  1.37863518  0.85258329  1
  Li  Li40  1  0.00000000  0.00000000  0.00000000  1
  Li  Li41  1  0.50000000  0.50000000  0.00000000  1
  Li  Li42  1  0.79217522  0.17683420  -0.00000000  1
  Li  Li43  1  0.20782478  0.82316580  -0.00000000  1
  Li  Li44  1  0.70782478  0.67683420  0.00000000  1
  Li  Li45  1  0.29217522  0.32316580  0.00000000  1
  Li  Li46  1  0.15512115  0.03670036  0.50000000  1
  Li  Li47  1  0.84487885  0.96329964  0.50000000  1
  Li  Li48  1  0.34487885  0.53670036  0.50000000  1
  Li  Li49  1  0.65512115  0.46329964  0.50000000  1
  Li  Li50  1  0.00000000  0.50000000  0.00000000  1
  Li  Li51  1  0.50000000  -0.00000000  0.00000000  1
  Li  Li52  1  0.00000000  0.50000000  0.71092616  1
  Li  Li53  1  0.50000000  -0.00000000  0.28907384  1
  Li  Li54  1  0.00000000  0.50000000  0.28907384  1
  Li  Li55  1  0.50000000  -0.00000000  0.71092616  1
