# generated using pymatgen
data_LiF
_symmetry_space_group_name_H-M   'P 1'
_cell_length_a   9.66997958
_cell_length_b   9.66997958
_cell_length_c   18.31938306
_cell_angle_alpha   90.00000000
_cell_angle_beta   90.00000000
_cell_angle_gamma   90.00000000
_symmetry_Int_Tables_number   1
_chemical_formula_structural   LiF
_chemical_formula_sum   'Li48 F48'
_cell_volume   1713.01812529
_cell_formula_units_Z   48
loop_
 _symmetry_equiv_pos_site_id
 _symmetry_equiv_pos_as_xyz
  1  'x, y, z'
loop_
 _atom_site_type_symbol
 _atom_site_label
 _atom_site_symmetry_multiplicity
 _atom_site_fract_x
 _atom_site_fract_y
 _atom_site_fract_z
 _atom_site_occupancy
  F  F0  1  0.75019654  0.50884362  0.21211245  1
  F  F1  1  -0.25019654  -0.50884362  0.71211245  1
  F  F2  1  -0.25884362  1.50019654  0.46211245  1
  F  F3  1  0.75884362  -0.50019654  0.96211245  1
  F  F4  1  -0.25019654  0.50884362  0.28788755  1
  F  F5  1  0.75019654  -0.50884362  -0.21211245  1
  F  F6  1  0.75884362  1.50019654  0.03788755  1
  F  F7  1  -0.25884362  -0.50019654  0.53788755  1
  F  F8  1  -0.75019654  -0.50884362  -0.21211245  1
  F  F9  1  1.25019654  0.50884362  0.28788755  1
  F  F10  1  1.25884362  -0.50019654  0.53788755  1
  F  F11  1  0.24115638  1.50019654  0.03788755  1
  F  F12  1  1.25019654  -0.50884362  0.71211245  1
  F  F13  1  -0.75019654  0.50884362  0.21211245  1
  F  F14  1  0.24115638  -0.50019654  0.96211245  1
  F  F15  1  1.25884362  1.50019654  0.46211245  1
  F  F16  1  1.25019654  1.00884362  0.71211245  1
  F  F17  1  0.24980346  -0.00884362  1.21211245  1
  F  F18  1  0.24115638  2.00019654  0.96211245  1
  F  F19  1  1.25884362  -0.00019654  1.46211245  1
  F  F20  1  0.24980346  1.00884362  0.78788755  1
  F  F21  1  1.25019654  -0.00884362  0.28788755  1
  F  F22  1  1.25884362  2.00019654  0.53788755  1
  F  F23  1  0.24115638  -0.00019654  1.03788755  1
  F  F24  1  -0.25019654  -0.00884362  0.28788755  1
  F  F25  1  1.75019654  1.00884362  0.78788755  1
  F  F26  1  1.75884362  -0.00019654  1.03788755  1
  F  F27  1  0.74115638  2.00019654  0.53788755  1
  F  F28  1  1.75019654  -0.00884362  1.21211245  1
  F  F29  1  -0.25019654  1.00884362  0.71211245  1
  F  F30  1  0.74115638  -0.00019654  1.46211245  1
  F  F31  1  1.75884362  2.00019654  0.96211245  1
  F  F32  1  0.00000000  0.75000000  0.12500000  1
  F  F33  1  0.50000000  0.75000000  0.37500000  1
  F  F34  1  0.50000000  0.25000000  0.62500000  1
  F  F35  1  0.00000000  0.25000000  0.87500000  1
  F  F36  1  0.00000000  0.25000000  0.31999387  1
  F  F37  1  0.00000000  0.75000000  0.56999387  1
  F  F38  1  0.50000000  0.25000000  0.18000613  1
  F  F39  1  0.50000000  0.75000000  0.93000613  1
  F  F40  1  0.50000000  0.75000000  0.81999387  1
  F  F41  1  0.50000000  0.25000000  0.06999387  1
  F  F42  1  0.00000000  0.75000000  0.68000613  1
  F  F43  1  0.00000000  0.25000000  0.43000613  1
  F  F44  1  0.00000000  0.25000000  0.37500000  1
  F  F45  1  0.00000000  0.75000000  0.62500000  1
  F  F46  1  0.50000000  0.75000000  0.87500000  1
  F  F47  1  0.50000000  0.25000000  0.12500000  1
  Li  Li48  1  0.00000000  0.00000000  0.50000000  1
  Li  Li49  1  0.50000000  0.00000000  0.00000000  1
  Li  Li50  1  0.25000000  0.75000000  0.75000000  1
  Li  Li51  1  0.25000000  0.25000000  0.25000000  1
  Li  Li52  1  0.50000000  0.50000000  0.00000000  1
  Li  Li53  1  0.00000000  0.50000000  0.50000000  1
  Li  Li54  1  0.75000000  0.25000000  0.25000000  1
  Li  Li55  1  0.75000000  0.75000000  0.75000000  1
  Li  Li56  1  0.00000000  0.45842670  0.21728960  1
  Li  Li57  1  0.50000000  0.54157330  0.71728960  1
  Li  Li58  1  0.79157330  0.75000000  0.46728960  1
  Li  Li59  1  0.70842670  0.25000000  0.96728960  1
  Li  Li60  1  0.50000000  0.45842670  0.28271040  1
  Li  Li61  1  0.00000000  0.54157330  0.78271040  1
  Li  Li62  1  0.70842670  0.75000000  0.03271040  1
  Li  Li63  1  0.79157330  0.25000000  0.53271040  1
  Li  Li64  1  0.50000000  0.95842670  0.71728960  1
  Li  Li65  1  0.00000000  0.04157330  0.21728960  1
  Li  Li66  1  0.29157330  0.25000000  0.96728960  1
  Li  Li67  1  0.20842670  0.75000000  0.46728960  1
  Li  Li68  1  0.00000000  0.95842670  0.78271040  1
  Li  Li69  1  0.50000000  0.04157330  0.28271040  1
  Li  Li70  1  0.20842670  0.25000000  0.53271040  1
  Li  Li71  1  0.29157330  0.75000000  0.03271040  1
  Li  Li72  1  0.00000000  0.25000000  0.18286994  1
  Li  Li73  1  0.00000000  0.75000000  0.43286994  1
  Li  Li74  1  0.50000000  0.25000000  0.31713006  1
  Li  Li75  1  0.50000000  0.75000000  0.06713006  1
  Li  Li76  1  0.50000000  0.75000000  0.68286994  1
  Li  Li77  1  0.50000000  0.25000000  0.93286994  1
  Li  Li78  1  0.00000000  0.75000000  0.81713006  1
  Li  Li79  1  0.00000000  0.25000000  0.56713006  1
  Li  Li80  1  0.00000000  0.12121657  0.40583481  1
  Li  Li81  1  0.50000000  0.87878343  0.90583481  1
  Li  Li82  1  0.12878343  0.75000000  0.65583481  1
  Li  Li83  1  0.37121657  0.25000000  0.15583481  1
  Li  Li84  1  0.50000000  0.12121657  0.09416519  1
  Li  Li85  1  0.00000000  0.87878343  0.59416519  1
  Li  Li86  1  0.37121657  0.75000000  0.84416519  1
  Li  Li87  1  0.12878343  0.25000000  0.34416519  1
  Li  Li88  1  0.50000000  0.62121657  0.90583481  1
  Li  Li89  1  0.00000000  0.37878343  0.40583481  1
  Li  Li90  1  0.62878343  0.25000000  0.15583481  1
  Li  Li91  1  0.87121657  0.75000000  0.65583481  1
  Li  Li92  1  0.00000000  0.62121657  0.59416519  1
  Li  Li93  1  0.50000000  0.37878343  0.09416519  1
  Li  Li94  1  0.87121657  0.25000000  0.34416519  1
  Li  Li95  1  0.62878343  0.75000000  0.84416519  1
