# generated using pymatgen
data_LiF
_symmetry_space_group_name_H-M   'P 1'
_cell_length_a   11.73052674
_cell_length_b   11.73052674
_cell_length_c   8.78409143
_cell_angle_alpha   90.00000000
_cell_angle_beta   90.00000000
_cell_angle_gamma   120.00000000
_symmetry_Int_Tables_number   1
_chemical_formula_structural   LiF
_chemical_formula_sum   'Li30 F30'
_cell_volume   1046.79709014
_cell_formula_units_Z   30
loop_
 _symmetry_equiv_pos_site_id
 _symmetry_equiv_pos_as_xyz
  1  'x, y, z'
loop_
 _atom_site_type_symbol
 _atom_site_label
 _atom_site_symmetry_multiplicity
 _atom_site_fract_x
 _atom_site_fract_y
 _atom_site_fract_z
 _atom_site_occupancy
  F  F0  1  0.81146092  0.18853908  -0.00000000  1
  F  F1  1  0.81146092  0.62292183  -0.00000000  1
  F  F2  1  0.37707817  0.18853908  -0.00000000  1
  F  F3  1  0.78828569  0.82735262  0.78382574  1
  F  F4  1  0.17264738  0.96093307  0.78382574  1
  F  F5  1  0.03906693  0.21171431  0.78382574  1
  F  F6  1  0.17264738  0.21171431  0.21617426  1
  F  F7  1  0.03906693  0.82735262  0.21617426  1
  F  F8  1  0.78828569  0.96093307  0.21617426  1
  F  F9  1  0.37274330  0.80223632  0.94032059  1
  F  F10  1  0.19776368  0.57050698  0.94032059  1
  F  F11  1  0.42949302  0.62725670  0.94032059  1
  F  F12  1  0.19776368  0.62725670  0.05967941  1
  F  F13  1  0.42949302  0.80223632  0.05967941  1
  F  F14  1  0.37274330  0.57050698  0.05967941  1
  F  F15  1  0.95764897  0.24480953  0.33893678  1
  F  F16  1  0.75519047  0.71283944  0.33893678  1
  F  F17  1  0.28716056  0.04235103  0.33893678  1
  F  F18  1  0.75519047  0.04235103  0.66106322  1
  F  F19  1  0.28716056  0.24480953  0.66106322  1
  F  F20  1  0.95764897  0.71283944  0.66106322  1
  F  F21  1  0.32139164  0.77646197  0.32007505  1
  F  F22  1  0.22353803  0.54492968  0.32007505  1
  F  F23  1  0.45507032  0.67860836  0.32007505  1
  F  F24  1  0.22353803  0.67860836  0.67992495  1
  F  F25  1  0.45507032  0.77646197  0.67992495  1
  F  F26  1  0.32139164  0.54492968  0.67992495  1
  F  F27  1  0.30878421  0.69121579  0.50000000  1
  F  F28  1  0.30878421  0.61756842  0.50000000  1
  F  F29  1  0.38243158  0.69121579  0.50000000  1
  Li  Li30  1  0.82999540  0.63148619  0.20513744  1
  Li  Li31  1  -0.63148619  0.19850920  0.20513744  1
  Li  Li32  1  -0.19850920  -0.82999540  0.20513744  1
  Li  Li33  1  -0.63148619  -0.82999540  -0.20513744  1
  Li  Li34  1  -0.19850920  0.63148619  -0.20513744  1
  Li  Li35  1  0.82999540  0.19850920  -0.20513744  1
  Li  Li36  1  0.66666667  0.33333333  0.50000000  1
  Li  Li37  1  0.33333333  0.66666667  0.00000000  1
  Li  Li38  1  0.00000000  0.00000000  0.00000000  1
  Li  Li39  1  0.63979512  0.58617597  0.60542626  1
  Li  Li40  1  0.41382403  0.05361915  0.60542626  1
  Li  Li41  1  0.94638085  0.36020488  0.60542626  1
  Li  Li42  1  0.41382403  0.36020488  0.39457374  1
  Li  Li43  1  0.94638085  0.58617597  0.39457374  1
  Li  Li44  1  0.63979512  0.05361915  0.39457374  1
  Li  Li45  1  0.87622125  0.20103182  0.56670071  1
  Li  Li46  1  0.79896818  0.67518942  0.56670071  1
  Li  Li47  1  0.32481058  0.12377875  0.56670071  1
  Li  Li48  1  0.79896818  0.12377875  0.43329929  1
  Li  Li49  1  0.32481058  0.20103182  0.43329929  1
  Li  Li50  1  0.87622125  0.67518942  0.43329929  1
  Li  Li51  1  0.90329748  0.19536908  0.03490118  1
  Li  Li52  1  0.80463092  0.70792840  0.03490118  1
  Li  Li53  1  0.29207160  0.09670252  0.03490118  1
  Li  Li54  1  0.80463092  0.09670252  0.96509882  1
  Li  Li55  1  0.29207160  0.19536908  0.96509882  1
  Li  Li56  1  0.90329748  0.70792840  0.96509882  1
  Li  Li57  1  0.57925459  0.42074541  0.50000000  1
  Li  Li58  1  0.57925459  0.15850919  0.50000000  1
  Li  Li59  1  0.84149081  0.42074541  0.50000000  1
