# generated using pymatgen
data_Li2MoP3Se
_symmetry_space_group_name_H-M   'P 1'
_cell_length_a   4.67198619
_cell_length_b   5.06805683
_cell_length_c   6.27127778
_cell_angle_alpha   92.49319938
_cell_angle_beta   97.00841994
_cell_angle_gamma   101.92044139
_symmetry_Int_Tables_number   1
_chemical_formula_structural   Li2MoP3Se
_chemical_formula_sum   'Li2 Mo1 P3 Se1'
_cell_volume   143.84160235
_cell_formula_units_Z   1
loop_
 _symmetry_equiv_pos_site_id
 _symmetry_equiv_pos_as_xyz
  1  'x, y, z'
loop_
 _atom_site_type_symbol
 _atom_site_label
 _atom_site_symmetry_multiplicity
 _atom_site_fract_x
 _atom_site_fract_y
 _atom_site_fract_z
 _atom_site_occupancy
  Se  Se0  1  0.00000000  0.00000000  0.00000000  1
  P  P1  1  0.50000000  0.50000000  0.50000000  1
  P  P2  1  0.50000000  0.50000000  0.00000000  1
  P  P3  1  0.50000000  0.00000000  0.50000000  1
  Mo  Mo4  1  0.00000000  0.50000000  0.50000000  1
  Li  Li5  1  0.24596816  0.13764748  0.78051895  1
  Li  Li6  1  0.28318962  0.25457828  0.98284660  1
