# generated using pymatgen
data_Li2Y2As4P3
_symmetry_space_group_name_H-M   'P 1'
_cell_length_a   4.30315609
_cell_length_b   4.49630241
_cell_length_c   6.69279040
_cell_angle_alpha   95.85455231
_cell_angle_beta   102.27868663
_cell_angle_gamma   112.77626915
_symmetry_Int_Tables_number   1
_chemical_formula_structural   Li2Y2As4P3
_chemical_formula_sum   'Li2 Y2 As4 P3'
_cell_volume   114.19727928
_cell_formula_units_Z   1
loop_
 _symmetry_equiv_pos_site_id
 _symmetry_equiv_pos_as_xyz
  1  'x, y, z'
loop_
 _atom_site_type_symbol
 _atom_site_label
 _atom_site_symmetry_multiplicity
 _atom_site_fract_x
 _atom_site_fract_y
 _atom_site_fract_z
 _atom_site_occupancy
  Y  Y0  1  0.12500000  0.00000000  0.25000000  1
  Y  Y1  1  0.00000000  0.00000000  0.00000000  1
  P  P2  1  0.37500000  0.00000000  0.25000000  1
  P  P3  1  0.25000000  0.25000000  0.25000000  1
  P  P4  1  0.00000000  0.25000000  0.12500000  1
  As  As5  1  0.07200441  0.08374554  0.12482189  1
  As  As6  1  0.29497111  0.11804794  0.11969860  1
  As  As7  1  0.10997561  0.64680434  0.93141160  1
  As  As8  1  0.95905288  0.15800878  0.59190715  1
  Li  Li9  1  0.52508733  0.71742858  0.24448368  1
  Li  Li10  1  0.85129301  0.26497026  0.32903669  1
