# generated using pymatgen
data_LiF
_symmetry_space_group_name_H-M   'P 1'
_cell_length_a   7.05639700
_cell_length_b   7.05639700
_cell_length_c   8.06036595
_cell_angle_alpha   90.00000000
_cell_angle_beta   90.00000000
_cell_angle_gamma   120.00000000
_symmetry_Int_Tables_number   1
_chemical_formula_structural   LiF
_chemical_formula_sum   'Li12 F12'
_cell_volume   347.57729959
_cell_formula_units_Z   12
loop_
 _symmetry_equiv_pos_site_id
 _symmetry_equiv_pos_as_xyz
  1  'x, y, z'
loop_
 _atom_site_type_symbol
 _atom_site_label
 _atom_site_symmetry_multiplicity
 _atom_site_fract_x
 _atom_site_fract_y
 _atom_site_fract_z
 _atom_site_occupancy
  F  F0  1  0.78065294  0.46240520  0.31672176  1
  F  F1  1  0.53759480  0.31824775  0.31672176  1
  F  F2  1  0.68175225  0.21934706  0.31672176  1
  F  F3  1  0.53759480  0.21934706  0.68327824  1
  F  F4  1  0.68175225  0.46240520  0.68327824  1
  F  F5  1  0.78065294  0.31824775  0.68327824  1
  F  F6  1  0.55421157  0.13665899  0.63016808  1
  F  F7  1  0.86334101  0.41755258  0.63016808  1
  F  F8  1  0.58244742  0.44578843  0.63016808  1
  F  F9  1  0.86334101  0.44578843  0.36983192  1
  F  F10  1  0.58244742  0.13665899  0.36983192  1
  F  F11  1  0.55421157  0.41755258  0.36983192  1
  Li  Li12  1  0.33333333  0.66666667  -0.00000000  1
  Li  Li13  1  0.00000000  0.00000000  0.19503211  1
  Li  Li14  1  0.00000000  0.00000000  0.80496789  1
  Li  Li15  1  0.66666667  0.33333333  -0.00000000  1
  Li  Li16  1  0.01712757  0.66346151  0.69777751  1
  Li  Li17  1  -0.66346151  -0.64633394  0.69777751  1
  Li  Li18  1  0.64633394  -0.01712757  0.69777751  1
  Li  Li19  1  -0.66346151  -0.01712757  -0.69777751  1
  Li  Li20  1  0.64633394  0.66346151  -0.69777751  1
  Li  Li21  1  0.01712757  -0.64633394  -0.69777751  1
  Li  Li22  1  0.33333333  0.66666667  0.77135120  1
  Li  Li23  1  0.33333333  0.66666667  0.22864880  1
