# generated using pymatgen
data_LiTe2As2SeF
_symmetry_space_group_name_H-M   'P 1'
_cell_length_a   6.55857057
_cell_length_b   6.49652727
_cell_length_c   7.35042415
_cell_angle_alpha   92.17621129
_cell_angle_beta   94.73933575
_cell_angle_gamma   98.74097581
_symmetry_Int_Tables_number   1
_chemical_formula_structural   LiTe2As2SeF
_chemical_formula_sum   'Li2 Te4 As4 Se2 F2'
_cell_volume   308.08431836
_cell_formula_units_Z   2
loop_
 _symmetry_equiv_pos_site_id
 _symmetry_equiv_pos_as_xyz
  1  'x, y, z'
loop_
 _atom_site_type_symbol
 _atom_site_label
 _atom_site_symmetry_multiplicity
 _atom_site_fract_x
 _atom_site_fract_y
 _atom_site_fract_z
 _atom_site_occupancy
  Se  Se0  1  0.12500000  0.00000000  0.25000000  1
  Se  Se1  1  0.00000000  0.00000000  0.00000000  1
  Te  Te2  1  0.37500000  0.00000000  0.25000000  1
  Te  Te3  1  0.25000000  0.25000000  0.25000000  1
  Te  Te4  1  0.00000000  0.25000000  0.12500000  1
  Te  Te5  1  0.44910895  0.84298489  0.01435328  1
  F  F6  1  0.93679762  0.32056265  0.87267789  1
  F  F7  1  0.03025329  0.08162673  0.69050006  1
  As  As8  1  0.35686811  0.97316636  0.07471066  1
  As  As9  1  0.52045496  0.22541308  0.88344627  1
  As  As10  1  0.64671124  0.63281792  0.13500429  1
  As  As11  1  0.91837470  0.05166945  0.78160157  1
  Li  Li12  1  0.26941240  0.53083249  0.15583272  1
  Li  Li13  1  0.87352130  0.20820711  0.80978096  1
