# generated using pymatgen
data_LiF
_symmetry_space_group_name_H-M   'P 1'
_cell_length_a   18.77115674
_cell_length_b   18.77115674
_cell_length_c   4.78555794
_cell_angle_alpha   90.00000000
_cell_angle_beta   90.00000000
_cell_angle_gamma   120.00000000
_symmetry_Int_Tables_number   1
_chemical_formula_structural   LiF
_chemical_formula_sum   'Li36 F36'
_cell_volume   1460.31075104
_cell_formula_units_Z   36
loop_
 _symmetry_equiv_pos_site_id
 _symmetry_equiv_pos_as_xyz
  1  'x, y, z'
loop_
 _atom_site_type_symbol
 _atom_site_label
 _atom_site_symmetry_multiplicity
 _atom_site_fract_x
 _atom_site_fract_y
 _atom_site_fract_z
 _atom_site_occupancy
  F  F0  1  0.18393555  0.97175671  0.08637826  1
  F  F1  1  -0.97175671  -0.78782117  0.08637826  1
  F  F2  1  0.78782117  -0.18393555  0.08637826  1
  F  F3  1  0.97175671  0.18393555  0.41362174  1
  F  F4  1  -0.78782117  -0.97175671  0.41362174  1
  F  F5  1  -0.18393555  0.78782117  0.41362174  1
  F  F6  1  -0.18393555  -0.97175671  -0.08637826  1
  F  F7  1  0.97175671  0.78782117  -0.08637826  1
  F  F8  1  -0.78782117  0.18393555  -0.08637826  1
  F  F9  1  -0.97175671  -0.18393555  0.58637826  1
  F  F10  1  0.78782117  0.97175671  0.58637826  1
  F  F11  1  0.18393555  -0.78782117  0.58637826  1
  F  F12  1  0.85060221  1.30509005  0.41971160  1
  F  F13  1  -0.30509005  -0.45448784  0.41971160  1
  F  F14  1  1.45448784  0.14939779  0.41971160  1
  F  F15  1  1.63842338  0.51726888  0.74695507  1
  F  F16  1  -0.12115450  -0.63842338  0.74695507  1
  F  F17  1  0.48273112  1.12115450  0.74695507  1
  F  F18  1  0.48273112  -0.63842338  0.24695507  1
  F  F19  1  1.63842338  1.12115450  0.24695507  1
  F  F20  1  -0.12115450  0.51726888  0.24695507  1
  F  F21  1  -0.30509005  0.14939779  0.91971160  1
  F  F22  1  1.45448784  1.30509005  0.91971160  1
  F  F23  1  0.85060221  -0.45448784  0.91971160  1
  F  F24  1  0.51726888  1.63842338  0.75304493  1
  F  F25  1  -0.63842338  -0.12115450  0.75304493  1
  F  F26  1  1.12115450  0.48273112  0.75304493  1
  F  F27  1  1.30509005  0.85060221  1.08028840  1
  F  F28  1  -0.45448784  -0.30509005  1.08028840  1
  F  F29  1  0.14939779  1.45448784  1.08028840  1
  F  F30  1  0.14939779  -0.30509005  0.58028840  1
  F  F31  1  1.30509005  1.45448784  0.58028840  1
  F  F32  1  -0.45448784  0.85060221  0.58028840  1
  F  F33  1  -0.63842338  0.48273112  1.25304493  1
  F  F34  1  1.12115450  1.63842338  1.25304493  1
  F  F35  1  0.51726888  -0.12115450  1.25304493  1
  Li  Li36  1  0.75071535  0.45032094  0.78662166  1
  Li  Li37  1  0.54967906  0.30039440  0.78662166  1
  Li  Li38  1  0.69960560  0.24928465  0.78662166  1
  Li  Li39  1  0.45032094  0.75071535  0.71337834  1
  Li  Li40  1  0.30039440  0.54967906  0.71337834  1
  Li  Li41  1  0.24928465  0.69960560  0.71337834  1
  Li  Li42  1  0.24928465  0.54967906  0.21337834  1
  Li  Li43  1  0.45032094  0.69960560  0.21337834  1
  Li  Li44  1  0.30039440  0.75071535  0.21337834  1
  Li  Li45  1  0.54967906  0.24928465  0.28662166  1
  Li  Li46  1  0.69960560  0.45032094  0.28662166  1
  Li  Li47  1  0.75071535  0.30039440  0.28662166  1
  Li  Li48  1  0.41738201  0.78365428  0.11995499  1
  Li  Li49  1  0.21634572  0.63372774  0.11995499  1
  Li  Li50  1  0.36627226  0.58261799  0.11995499  1
  Li  Li51  1  0.11698761  0.08404868  0.04671167  1
  Li  Li52  1  0.96706107  0.88301239  0.04671167  1
  Li  Li53  1  0.91595132  0.03293893  0.04671167  1
  Li  Li54  1  0.91595132  0.88301239  0.54671167  1
  Li  Li55  1  0.11698761  0.03293893  0.54671167  1
  Li  Li56  1  0.96706107  0.08404868  0.54671167  1
  Li  Li57  1  0.21634572  0.58261799  0.61995499  1
  Li  Li58  1  0.36627226  0.78365428  0.61995499  1
  Li  Li59  1  0.41738201  0.63372774  0.61995499  1
  Li  Li60  1  0.08404868  0.11698761  0.45328833  1
  Li  Li61  1  0.88301239  0.96706107  0.45328833  1
  Li  Li62  1  0.03293893  0.91595132  0.45328833  1
  Li  Li63  1  0.78365428  0.41738201  0.38004501  1
  Li  Li64  1  0.63372774  0.21634572  0.38004501  1
  Li  Li65  1  0.58261799  0.36627226  0.38004501  1
  Li  Li66  1  0.58261799  0.21634572  0.88004501  1
  Li  Li67  1  0.78365428  0.36627226  0.88004501  1
  Li  Li68  1  0.63372774  0.41738201  0.88004501  1
  Li  Li69  1  0.88301239  0.91595132  0.95328833  1
  Li  Li70  1  0.03293893  0.11698761  0.95328833  1
  Li  Li71  1  0.08404868  0.96706107  0.95328833  1
