# generated using pymatgen
data_LiYAs2P
_symmetry_space_group_name_H-M   'P 1'
_cell_length_a   5.38459610
_cell_length_b   5.49334412
_cell_length_c   7.01958122
_cell_angle_alpha   94.22293001
_cell_angle_beta   99.19666362
_cell_angle_gamma   106.96183146
_symmetry_Int_Tables_number   1
_chemical_formula_structural   LiYAs2P
_chemical_formula_sum   'Li2 Y2 As4 P2'
_cell_volume   194.45329359
_cell_formula_units_Z   2
loop_
 _symmetry_equiv_pos_site_id
 _symmetry_equiv_pos_as_xyz
  1  'x, y, z'
loop_
 _atom_site_type_symbol
 _atom_site_label
 _atom_site_symmetry_multiplicity
 _atom_site_fract_x
 _atom_site_fract_y
 _atom_site_fract_z
 _atom_site_occupancy
  P  P0  1  0.00000000  0.00000000  0.00000000  1
  P  P1  1  0.33300000  0.66700000  0.25000000  1
  As  As2  1  0.66700000  0.33300000  0.50000000  1
  As  As3  1  0.00000000  0.00000000  0.75000000  1
  As  As4  1  0.35102689  0.07789624  0.59175300  1
  As  As5  1  0.06940031  0.57832863  0.68641116  1
  Li  Li6  1  0.17105803  0.11780083  0.01288095  1
  Li  Li7  1  0.32214397  0.11634710  0.30516872  1
  Y  Y8  1  0.69276960  0.05361528  0.43687947  1
  Y  Y9  1  0.68375162  0.72577397  0.95909212  1
