# generated using pymatgen
data_Li2As2P3Se
_symmetry_space_group_name_H-M   'P 1'
_cell_length_a   4.52126187
_cell_length_b   4.72042478
_cell_length_c   6.62448637
_cell_angle_alpha   95.25015128
_cell_angle_beta   100.80624635
_cell_angle_gamma   109.08575007
_symmetry_Int_Tables_number   1
_chemical_formula_structural   Li2As2P3Se
_chemical_formula_sum   'Li2 As2 P3 Se1'
_cell_volume   129.45012986
_cell_formula_units_Z   1
loop_
 _symmetry_equiv_pos_site_id
 _symmetry_equiv_pos_as_xyz
  1  'x, y, z'
loop_
 _atom_site_type_symbol
 _atom_site_label
 _atom_site_symmetry_multiplicity
 _atom_site_fract_x
 _atom_site_fract_y
 _atom_site_fract_z
 _atom_site_occupancy
  Se  Se0  1  0.12500000  0.12500000  0.12500000  1
  P  P1  1  0.50000000  0.50000000  0.50000000  1
  P  P2  1  0.25000000  0.25000000  0.25000000  1
  P  P3  1  0.75000000  0.75000000  0.75000000  1
  As  As4  1  0.92074983  0.68489916  0.45163304  1
  As  As5  1  0.19573366  0.55109036  0.73750545  1
  Li  Li6  1  0.69315473  0.59095396  0.56082466  1
  Li  Li7  1  0.48994488  0.67866349  0.78399518  1
