# generated using pymatgen
data_LiF
_symmetry_space_group_name_H-M   'P 1'
_cell_length_a   12.09259704
_cell_length_b   12.09259704
_cell_length_c   4.14743472
_cell_angle_alpha   90.00000000
_cell_angle_beta   90.00000000
_cell_angle_gamma   120.00000000
_symmetry_Int_Tables_number   1
_chemical_formula_structural   LiF
_chemical_formula_sum   'Li22 F22'
_cell_volume   525.22979333
_cell_formula_units_Z   22
loop_
 _symmetry_equiv_pos_site_id
 _symmetry_equiv_pos_as_xyz
  1  'x, y, z'
loop_
 _atom_site_type_symbol
 _atom_site_label
 _atom_site_symmetry_multiplicity
 _atom_site_fract_x
 _atom_site_fract_y
 _atom_site_fract_z
 _atom_site_occupancy
  F  F0  1  0.66666667  0.33333333  0.50000000  1
  F  F1  1  0.00000000  0.00000000  0.00000000  1
  F  F2  1  0.74666388  0.59002144  0.79314168  1
  F  F3  1  0.40997856  0.15664244  0.79314168  1
  F  F4  1  0.84335756  0.25333612  0.79314168  1
  F  F5  1  0.40997856  0.25333612  0.20685832  1
  F  F6  1  0.84335756  0.59002144  0.20685832  1
  F  F7  1  0.74666388  0.15664244  0.20685832  1
  F  F8  1  0.66666667  0.33333333  0.14450048  1
  F  F9  1  0.66666667  0.33333333  0.85549952  1
  F  F10  1  0.32102748  0.04527807  0.81300531  1
  F  F11  1  0.95472193  0.27574941  0.81300531  1
  F  F12  1  0.72425059  0.67897252  0.81300531  1
  F  F13  1  0.95472193  0.67897252  0.18699469  1
  F  F14  1  0.72425059  0.04527807  0.18699469  1
  F  F15  1  0.32102748  0.27574941  0.18699469  1
  F  F16  1  0.06819318  0.15225343  0.07587501  1
  F  F17  1  0.84774657  0.91593975  0.07587501  1
  F  F18  1  0.08406025  0.93180682  0.07587501  1
  F  F19  1  0.84774657  0.93180682  0.92412499  1
  F  F20  1  0.08406025  0.15225343  0.92412499  1
  F  F21  1  0.06819318  0.91593975  0.92412499  1
  Li  Li22  1  0.26645659  0.31142754  0.29654029  1
  Li  Li23  1  -0.31142754  -0.04497095  0.29654029  1
  Li  Li24  1  0.04497095  -0.26645659  0.29654029  1
  Li  Li25  1  -0.31142754  -0.26645659  -0.29654029  1
  Li  Li26  1  0.04497095  0.31142754  -0.29654029  1
  Li  Li27  1  0.26645659  -0.04497095  -0.29654029  1
  Li  Li28  1  0.61393007  0.38606993  0.00000000  1
  Li  Li29  1  0.61393007  0.22786014  0.00000000  1
  Li  Li30  1  0.77213986  0.38606993  0.00000000  1
  Li  Li31  1  0.00000000  0.00000000  0.50000000  1
  Li  Li32  1  0.81093961  0.18906039  0.50000000  1
  Li  Li33  1  0.81093961  0.62187923  0.50000000  1
  Li  Li34  1  0.37812077  0.18906039  0.50000000  1
  Li  Li35  1  0.86327085  0.04597714  0.32294732  1
  Li  Li36  1  0.95402286  0.81729371  0.32294732  1
  Li  Li37  1  0.18270629  0.13672915  0.32294732  1
  Li  Li38  1  0.95402286  0.13672915  0.67705268  1
  Li  Li39  1  0.18270629  0.04597714  0.67705268  1
  Li  Li40  1  0.86327085  0.81729371  0.67705268  1
  Li  Li41  1  0.28919093  0.71080907  0.50000000  1
  Li  Li42  1  0.28919093  0.57838186  0.50000000  1
  Li  Li43  1  0.42161814  0.71080907  0.50000000  1
