# generated using pymatgen
data_LiF
_symmetry_space_group_name_H-M   'P 1'
_cell_length_a   5.47069416
_cell_length_b   5.47069416
_cell_length_c   33.38175312
_cell_angle_alpha   90.00000000
_cell_angle_beta   90.00000000
_cell_angle_gamma   120.00000000
_symmetry_Int_Tables_number   1
_chemical_formula_structural   LiF
_chemical_formula_sum   'Li42 F42'
_cell_volume   865.21620427
_cell_formula_units_Z   42
loop_
 _symmetry_equiv_pos_site_id
 _symmetry_equiv_pos_as_xyz
  1  'x, y, z'
loop_
 _atom_site_type_symbol
 _atom_site_label
 _atom_site_symmetry_multiplicity
 _atom_site_fract_x
 _atom_site_fract_y
 _atom_site_fract_z
 _atom_site_occupancy
  F  F0  1  0.00000000  0.00000000  0.62826554  1
  F  F1  1  0.00000000  0.00000000  0.87173446  1
  F  F2  1  0.00000000  0.00000000  0.37173446  1
  F  F3  1  0.00000000  0.00000000  0.12826554  1
  F  F4  1  0.66666667  0.33333333  0.96159887  1
  F  F5  1  0.66666667  0.33333333  0.20506780  1
  F  F6  1  0.66666667  0.33333333  0.70506780  1
  F  F7  1  0.66666667  0.33333333  0.46159887  1
  F  F8  1  0.33333333  0.66666667  0.29493220  1
  F  F9  1  0.33333333  0.66666667  0.53840113  1
  F  F10  1  0.33333333  0.66666667  0.03840113  1
  F  F11  1  0.33333333  0.66666667  0.79493220  1
  F  F12  1  0.70727317  0.00000000  0.25000000  1
  F  F13  1  0.00000000  0.70727317  0.25000000  1
  F  F14  1  0.29272683  0.29272683  0.25000000  1
  F  F15  1  0.29272683  0.00000000  0.75000000  1
  F  F16  1  0.00000000  0.29272683  0.75000000  1
  F  F17  1  0.70727317  0.70727317  0.75000000  1
  F  F18  1  0.37393983  0.33333333  0.58333333  1
  F  F19  1  0.66666667  0.04060650  0.58333333  1
  F  F20  1  0.95939350  0.62606017  0.58333333  1
  F  F21  1  0.95939350  0.33333333  0.08333333  1
  F  F22  1  0.66666667  0.62606017  0.08333333  1
  F  F23  1  0.37393983  0.04060650  0.08333333  1
  F  F24  1  0.04060650  0.66666667  0.91666667  1
  F  F25  1  0.33333333  0.37393983  0.91666667  1
  F  F26  1  0.62606017  0.95939350  0.91666667  1
  F  F27  1  0.62606017  0.66666667  0.41666667  1
  F  F28  1  0.33333333  0.95939350  0.41666667  1
  F  F29  1  0.04060650  0.37393983  0.41666667  1
  F  F30  1  0.00000000  0.00000000  0.39737380  1
  F  F31  1  0.00000000  0.00000000  0.10262620  1
  F  F32  1  0.00000000  0.00000000  0.60262620  1
  F  F33  1  0.00000000  0.00000000  0.89737380  1
  F  F34  1  0.66666667  0.33333333  0.73070714  1
  F  F35  1  0.66666667  0.33333333  0.43595953  1
  F  F36  1  0.66666667  0.33333333  0.93595953  1
  F  F37  1  0.66666667  0.33333333  0.23070714  1
  F  F38  1  0.33333333  0.66666667  0.06404047  1
  F  F39  1  0.33333333  0.66666667  0.76929286  1
  F  F40  1  0.33333333  0.66666667  0.26929286  1
  F  F41  1  0.33333333  0.66666667  0.56404047  1
  Li  Li42  1  0.50851739  0.36249363  0.18963210  1
  Li  Li43  1  -0.36249363  0.14602376  0.18963210  1
  Li  Li44  1  -0.14602376  -0.50851739  0.18963210  1
  Li  Li45  1  0.36249363  0.50851739  0.31036790  1
  Li  Li46  1  0.14602376  -0.36249363  0.31036790  1
  Li  Li47  1  -0.50851739  -0.14602376  0.31036790  1
  Li  Li48  1  -0.50851739  -0.36249363  -0.18963210  1
  Li  Li49  1  0.36249363  -0.14602376  -0.18963210  1
  Li  Li50  1  0.14602376  0.50851739  -0.18963210  1
  Li  Li51  1  -0.36249363  -0.50851739  0.68963210  1
  Li  Li52  1  -0.14602376  0.36249363  0.68963210  1
  Li  Li53  1  0.50851739  0.14602376  0.68963210  1
  Li  Li54  1  1.17518405  0.69582696  0.52296543  1
  Li  Li55  1  0.30417304  0.47935709  0.52296543  1
  Li  Li56  1  0.52064291  -0.17518405  0.52296543  1
  Li  Li57  1  1.02916029  0.84185072  0.64370123  1
  Li  Li58  1  0.81269043  -0.02916029  0.64370123  1
  Li  Li59  1  0.15814928  0.18730957  0.64370123  1
  Li  Li60  1  0.15814928  -0.02916029  0.14370123  1
  Li  Li61  1  1.02916029  0.18730957  0.14370123  1
  Li  Li62  1  0.81269043  0.84185072  0.14370123  1
  Li  Li63  1  0.30417304  -0.17518405  1.02296543  1
  Li  Li64  1  0.52064291  0.69582696  1.02296543  1
  Li  Li65  1  1.17518405  0.47935709  1.02296543  1
  Li  Li66  1  0.84185072  1.02916029  0.85629877  1
  Li  Li67  1  -0.02916029  0.81269043  0.85629877  1
  Li  Li68  1  0.18730957  0.15814928  0.85629877  1
  Li  Li69  1  0.69582696  1.17518405  0.97703457  1
  Li  Li70  1  0.47935709  0.30417304  0.97703457  1
  Li  Li71  1  -0.17518405  0.52064291  0.97703457  1
  Li  Li72  1  -0.17518405  0.30417304  0.47703457  1
  Li  Li73  1  0.69582696  0.52064291  0.47703457  1
  Li  Li74  1  0.47935709  1.17518405  0.47703457  1
  Li  Li75  1  -0.02916029  0.15814928  1.35629877  1
  Li  Li76  1  0.18730957  1.02916029  1.35629877  1
  Li  Li77  1  0.84185072  0.81269043  1.35629877  1
  Li  Li78  1  0.00000000  0.00000000  0.25000000  1
  Li  Li79  1  0.00000000  0.00000000  0.75000000  1
  Li  Li80  1  0.66666667  0.33333333  0.58333333  1
  Li  Li81  1  0.66666667  0.33333333  0.08333333  1
  Li  Li82  1  0.33333333  0.66666667  0.91666667  1
  Li  Li83  1  0.33333333  0.66666667  0.41666667  1
