# generated using pymatgen
data_Li2Y2P3Se
_symmetry_space_group_name_H-M   'P 1'
_cell_length_a   5.26140252
_cell_length_b   5.52911328
_cell_length_c   7.09149271
_cell_angle_alpha   93.79111932
_cell_angle_beta   98.50578400
_cell_angle_gamma   105.52869378
_symmetry_Int_Tables_number   1
_chemical_formula_structural   Li2Y2P3Se
_chemical_formula_sum   'Li2 Y2 P3 Se1'
_cell_volume   195.36744779
_cell_formula_units_Z   1
loop_
 _symmetry_equiv_pos_site_id
 _symmetry_equiv_pos_as_xyz
  1  'x, y, z'
loop_
 _atom_site_type_symbol
 _atom_site_label
 _atom_site_symmetry_multiplicity
 _atom_site_fract_x
 _atom_site_fract_y
 _atom_site_fract_z
 _atom_site_occupancy
  Se  Se0  1  0.12500000  0.12500000  0.12500000  1
  Y  Y1  1  0.50000000  0.50000000  0.50000000  1
  Y  Y2  1  0.25000000  0.25000000  0.25000000  1
  P  P3  1  0.75000000  0.75000000  0.75000000  1
  P  P4  1  0.39909863  0.17989593  0.02897809  1
  P  P5  1  0.56226602  0.08937836  0.58036425  1
  Li  Li6  1  0.86641936  0.51128406  0.13448386  1
  Li  Li7  1  0.38122592  0.91639005  0.38042478  1
