# generated using pymatgen
data_Li2Ca3F8
_symmetry_space_group_name_H-M   'P 1'
_cell_length_a   14.74634071
_cell_length_b   14.74634071
_cell_length_c   9.01232689
_cell_angle_alpha   90.00000000
_cell_angle_beta   90.00000000
_cell_angle_gamma   90.00000000
_symmetry_Int_Tables_number   1
_chemical_formula_structural   Li2Ca3F8
_chemical_formula_sum   'Li16 Ca24 F64'
_cell_volume   1959.77161785
_cell_formula_units_Z   8
loop_
 _symmetry_equiv_pos_site_id
 _symmetry_equiv_pos_as_xyz
  1  'x, y, z'
loop_
 _atom_site_type_symbol
 _atom_site_label
 _atom_site_symmetry_multiplicity
 _atom_site_fract_x
 _atom_site_fract_y
 _atom_site_fract_z
 _atom_site_occupancy
  Ca  Ca0  1  0.86912053  0.50000000  0.18256940  1
  Ca  Ca1  1  0.13087947  0.50000000  0.18256940  1
  Ca  Ca2  1  0.50000000  0.86912053  0.18256940  1
  Ca  Ca3  1  0.50000000  0.13087947  0.18256940  1
  Ca  Ca4  1  0.13087947  0.50000000  0.81743060  1
  Ca  Ca5  1  0.86912053  0.50000000  0.81743060  1
  Ca  Ca6  1  0.50000000  0.86912053  0.81743060  1
  Ca  Ca7  1  0.50000000  0.13087947  0.81743060  1
  Ca  Ca8  1  0.26426906  0.61894350  0.25240096  1
  Ca  Ca9  1  0.73573094  0.38105650  0.25240096  1
  Ca  Ca10  1  0.38105650  0.26426906  0.25240096  1
  Ca  Ca11  1  0.61894350  0.73573094  0.25240096  1
  Ca  Ca12  1  0.73573094  0.61894350  0.74759904  1
  Ca  Ca13  1  0.26426906  0.38105650  0.74759904  1
  Ca  Ca14  1  0.61894350  0.26426906  0.74759904  1
  Ca  Ca15  1  0.38105650  0.73573094  0.74759904  1
  Ca  Ca16  1  0.73573094  0.38105650  0.74759904  1
  Ca  Ca17  1  0.26426906  0.61894350  0.74759904  1
  Ca  Ca18  1  0.61894350  0.73573094  0.74759904  1
  Ca  Ca19  1  0.38105650  0.26426906  0.74759904  1
  Ca  Ca20  1  0.26426906  0.38105650  0.25240096  1
  Ca  Ca21  1  0.73573094  0.61894350  0.25240096  1
  Ca  Ca22  1  0.38105650  0.73573094  0.25240096  1
  Ca  Ca23  1  0.61894350  0.26426906  0.25240096  1
  F  F24  1  0.81112643  0.81112643  0.00000000  1
  F  F25  1  0.18887357  0.18887357  -0.00000000  1
  F  F26  1  0.18887357  0.81112643  0.00000000  1
  F  F27  1  0.81112643  0.18887357  -0.00000000  1
  F  F28  1  0.97809153  0.16749196  0.39630700  1
  F  F29  1  -0.97809153  -0.16749196  0.39630700  1
  F  F30  1  -0.16749196  0.97809153  0.39630700  1
  F  F31  1  0.16749196  -0.97809153  0.39630700  1
  F  F32  1  -0.97809153  0.16749196  -0.39630700  1
  F  F33  1  0.97809153  -0.16749196  -0.39630700  1
  F  F34  1  0.16749196  0.97809153  -0.39630700  1
  F  F35  1  -0.16749196  -0.97809153  -0.39630700  1
  F  F36  1  -0.97809153  -0.16749196  -0.39630700  1
  F  F37  1  0.97809153  0.16749196  -0.39630700  1
  F  F38  1  0.16749196  -0.97809153  -0.39630700  1
  F  F39  1  -0.16749196  0.97809153  -0.39630700  1
  F  F40  1  0.97809153  -0.16749196  0.39630700  1
  F  F41  1  -0.97809153  0.16749196  0.39630700  1
  F  F42  1  -0.16749196  -0.97809153  0.39630700  1
  F  F43  1  0.16749196  0.97809153  0.39630700  1
  F  F44  1  0.18881088  0.43699917  0.04114665  1
  F  F45  1  0.81118912  0.56300083  0.04114665  1
  F  F46  1  0.56300083  0.18881088  0.04114665  1
  F  F47  1  0.43699917  0.81118912  0.04114665  1
  F  F48  1  0.81118912  0.43699917  0.95885335  1
  F  F49  1  0.18881088  0.56300083  0.95885335  1
  F  F50  1  0.43699917  0.18881088  0.95885335  1
  F  F51  1  0.56300083  0.81118912  0.95885335  1
  F  F52  1  0.81118912  0.56300083  0.95885335  1
  F  F53  1  0.18881088  0.43699917  0.95885335  1
  F  F54  1  0.43699917  0.81118912  0.95885335  1
  F  F55  1  0.56300083  0.18881088  0.95885335  1
  F  F56  1  0.18881088  0.56300083  0.04114665  1
  F  F57  1  0.81118912  0.43699917  0.04114665  1
  F  F58  1  0.56300083  0.81118912  0.04114665  1
  F  F59  1  0.43699917  0.18881088  0.04114665  1
  F  F60  1  0.68694381  -0.00000000  0.87150702  1
  F  F61  1  0.31305619  0.00000000  0.87150702  1
  F  F62  1  0.00000000  0.68694381  0.87150702  1
  F  F63  1  0.00000000  0.31305619  0.87150702  1
  F  F64  1  0.31305619  0.00000000  0.12849298  1
  F  F65  1  0.68694381  -0.00000000  0.12849298  1
  F  F66  1  0.00000000  0.68694381  0.12849298  1
  F  F67  1  0.00000000  0.31305619  0.12849298  1
  F  F68  1  0.83197713  0.00000000  0.50000000  1
  F  F69  1  0.16802287  0.00000000  0.50000000  1
  F  F70  1  0.00000000  0.83197713  0.50000000  1
  F  F71  1  0.00000000  0.16802287  0.50000000  1
  F  F72  1  0.45806880  0.72071035  0.00000000  1
  F  F73  1  0.54193120  0.27928965  0.00000000  1
  F  F74  1  0.27928965  0.45806880  0.00000000  1
  F  F75  1  0.72071035  0.54193120  -0.00000000  1
  F  F76  1  0.54193120  0.72071035  -0.00000000  1
  F  F77  1  0.45806880  0.27928965  0.00000000  1
  F  F78  1  0.72071035  0.45806880  0.00000000  1
  F  F79  1  0.27928965  0.54193120  0.00000000  1
  F  F80  1  0.87629569  0.00000000  0.56091095  1
  F  F81  1  0.12370431  0.00000000  0.56091095  1
  F  F82  1  0.00000000  0.87629569  0.56091095  1
  F  F83  1  0.00000000  0.12370431  0.56091095  1
  F  F84  1  0.12370431  0.00000000  0.43908905  1
  F  F85  1  0.87629569  0.00000000  0.43908905  1
  F  F86  1  0.00000000  0.87629569  0.43908905  1
  F  F87  1  0.00000000  0.12370431  0.43908905  1
  Li  Li88  1  0.50000000  0.50000000  0.84688087  1
  Li  Li89  1  0.50000000  0.50000000  0.15311913  1
  Li  Li90  1  0.00000000  0.50000000  0.50000000  1
  Li  Li91  1  0.50000000  0.00000000  0.50000000  1
  Li  Li92  1  0.00000000  0.00000000  0.00000000  1
  Li  Li93  1  0.43348732  0.43348732  0.00000000  1
  Li  Li94  1  0.56651268  0.56651268  0.00000000  1
  Li  Li95  1  0.56651268  0.43348732  0.00000000  1
  Li  Li96  1  0.43348732  0.56651268  0.00000000  1
  Li  Li97  1  0.00000000  0.00000000  0.84430051  1
  Li  Li98  1  0.00000000  0.00000000  0.15569949  1
  Li  Li99  1  0.60191375  0.60191375  0.50000000  1
  Li  Li100  1  0.39808625  0.39808625  0.50000000  1
  Li  Li101  1  0.39808625  0.60191375  0.50000000  1
  Li  Li102  1  0.60191375  0.39808625  0.50000000  1
  Li  Li103  1  0.50000000  0.50000000  0.00000000  1
