# generated using pymatgen
data_LiF
_symmetry_space_group_name_H-M   'P 1'
_cell_length_a   10.10947033
_cell_length_b   17.38816334
_cell_length_c   4.85902518
_cell_angle_alpha   90.00000000
_cell_angle_beta   90.00000000
_cell_angle_gamma   90.00000000
_symmetry_Int_Tables_number   1
_chemical_formula_structural   LiF
_chemical_formula_sum   'Li24 F24'
_cell_volume   854.14433141
_cell_formula_units_Z   24
loop_
 _symmetry_equiv_pos_site_id
 _symmetry_equiv_pos_as_xyz
  1  'x, y, z'
loop_
 _atom_site_type_symbol
 _atom_site_label
 _atom_site_symmetry_multiplicity
 _atom_site_fract_x
 _atom_site_fract_y
 _atom_site_fract_z
 _atom_site_occupancy
  F  F0  1  0.50562571  0.41814864  0.82079594  1
  F  F1  1  -0.00562571  -0.41814864  1.32079594  1
  F  F2  1  -0.50562571  0.91814864  -0.82079594  1
  F  F3  1  1.00562571  0.08185136  -0.32079594  1
  F  F4  1  -0.50562571  -0.41814864  -0.82079594  1
  F  F5  1  1.00562571  0.41814864  -0.32079594  1
  F  F6  1  0.50562571  0.08185136  0.82079594  1
  F  F7  1  -0.00562571  0.91814864  1.32079594  1
  F  F8  1  0.37015440  0.25000000  0.28103539  1
  F  F9  1  0.12984560  0.75000000  0.78103539  1
  F  F10  1  0.62984560  0.75000000  0.71896461  1
  F  F11  1  0.87015440  0.25000000  0.21896461  1
  F  F12  1  0.88287367  0.54545058  0.42766721  1
  F  F13  1  0.61712633  0.45454942  0.92766721  1
  F  F14  1  0.11712633  0.04545058  0.57233279  1
  F  F15  1  0.38287367  0.95454942  0.07233279  1
  F  F16  1  0.11712633  0.45454942  0.57233279  1
  F  F17  1  0.38287367  0.54545058  0.07233279  1
  F  F18  1  0.88287367  0.95454942  0.42766721  1
  F  F19  1  0.61712633  0.04545058  0.92766721  1
  F  F20  1  0.00000000  0.00000000  0.50000000  1
  F  F21  1  0.50000000  -0.00000000  0.00000000  1
  F  F22  1  0.00000000  0.50000000  0.50000000  1
  F  F23  1  0.50000000  0.50000000  0.00000000  1
  Li  Li24  1  0.46787812  0.65755759  0.58214615  1
  Li  Li25  1  0.03212188  0.34244241  0.08214615  1
  Li  Li26  1  0.53212188  0.15755759  0.41785385  1
  Li  Li27  1  0.96787812  0.84244241  0.91785385  1
  Li  Li28  1  0.53212188  0.34244241  0.41785385  1
  Li  Li29  1  0.96787812  0.65755759  0.91785385  1
  Li  Li30  1  0.46787812  0.84244241  0.58214615  1
  Li  Li31  1  0.03212188  0.15755759  0.08214615  1
  Li  Li32  1  0.41722484  0.56050206  0.45171694  1
  Li  Li33  1  0.08277516  0.43949794  0.95171694  1
  Li  Li34  1  0.58277516  0.06050206  0.54828306  1
  Li  Li35  1  0.91722484  0.93949794  0.04828306  1
  Li  Li36  1  0.58277516  0.43949794  0.54828306  1
  Li  Li37  1  0.91722484  0.56050206  0.04828306  1
  Li  Li38  1  0.41722484  0.93949794  0.45171694  1
  Li  Li39  1  0.08277516  0.06050206  0.95171694  1
  Li  Li40  1  0.65014397  0.53798705  0.45721021  1
  Li  Li41  1  0.84985603  0.46201295  0.95721021  1
  Li  Li42  1  0.34985603  0.03798705  0.54278979  1
  Li  Li43  1  0.15014397  0.96201295  0.04278979  1
  Li  Li44  1  0.34985603  0.46201295  0.54278979  1
  Li  Li45  1  0.15014397  0.53798705  0.04278979  1
  Li  Li46  1  0.65014397  0.96201295  0.45721021  1
  Li  Li47  1  0.84985603  0.03798705  0.95721021  1
