# generated using pymatgen
data_LiAl2Sb2PF6
_symmetry_space_group_name_H-M   'P 1'
_cell_length_a   7.83515048
_cell_length_b   6.57758681
_cell_length_c   8.34673235
_cell_angle_alpha   90.00000000
_cell_angle_beta   90.00000000
_cell_angle_gamma   90.00000000
_symmetry_Int_Tables_number   1
_chemical_formula_structural   LiAl2Sb2PF6
_chemical_formula_sum   'Li1 Al2 Sb2 P1 F6'
_cell_volume   430.16039075
_cell_formula_units_Z   1
loop_
 _symmetry_equiv_pos_site_id
 _symmetry_equiv_pos_as_xyz
  1  'x, y, z'
loop_
 _atom_site_type_symbol
 _atom_site_label
 _atom_site_symmetry_multiplicity
 _atom_site_fract_x
 _atom_site_fract_y
 _atom_site_fract_z
 _atom_site_occupancy
  Al  Al0  1  0.00000000  0.00000000  0.00000000  1
  Al  Al1  1  0.50000000  0.50000000  0.50000000  1
  F  F2  1  0.50000000  0.50000000  0.00000000  1
  F  F3  1  0.50000000  0.00000000  0.50000000  1
  F  F4  1  0.00000000  0.50000000  0.50000000  1
  F  F5  1  0.71500102  0.91151144  0.35859220  1
  F  F6  1  0.94877509  0.38030582  0.55267766  1
  F  F7  1  0.37983300  0.53094912  0.25262802  1
  P  P8  1  0.46049311  0.06743389  0.38651972  1
  Li  Li9  1  0.04813254  0.95901755  0.25412739  1
  Sb  Sb10  1  0.13313766  0.16592669  0.43939582  1
  Sb  Sb11  1  0.50216754  0.38642774  0.55966609  1
