# generated using pymatgen
data_Li4TeF2
_symmetry_space_group_name_H-M   'P 1'
_cell_length_a   13.65467072
_cell_length_b   13.65467072
_cell_length_c   13.65467072
_cell_angle_alpha   90.00000000
_cell_angle_beta   90.00000000
_cell_angle_gamma   90.00000000
_symmetry_Int_Tables_number   1
_chemical_formula_structural   Li4TeF2
_chemical_formula_sum   'Li96 Te24 F48'
_cell_volume   2545.91379753
_cell_formula_units_Z   24
loop_
 _symmetry_equiv_pos_site_id
 _symmetry_equiv_pos_as_xyz
  1  'x, y, z'
loop_
 _atom_site_type_symbol
 _atom_site_label
 _atom_site_symmetry_multiplicity
 _atom_site_fract_x
 _atom_site_fract_y
 _atom_site_fract_z
 _atom_site_occupancy
  F  F0  1  0.12500000  0.74711462  0.50288538  1
  F  F1  1  0.37500000  0.25288538  0.00288538  1
  F  F2  1  0.87500000  0.24711462  0.99711462  1
  F  F3  1  0.62500000  0.75288538  0.49711462  1
  F  F4  1  0.50288538  0.12500000  0.74711462  1
  F  F5  1  0.00288538  0.37500000  0.25288538  1
  F  F6  1  0.99711462  0.87500000  0.24711462  1
  F  F7  1  0.49711462  0.62500000  0.75288538  1
  F  F8  1  0.74711462  0.50288538  0.12500000  1
  F  F9  1  0.25288538  0.00288538  0.37500000  1
  F  F10  1  0.24711462  0.99711462  0.87500000  1
  F  F11  1  0.75288538  0.49711462  0.62500000  1
  F  F12  1  0.62500000  0.24711462  0.00288538  1
  F  F13  1  0.87500000  0.75288538  0.50288538  1
  F  F14  1  0.37500000  0.74711462  0.49711462  1
  F  F15  1  0.12500000  0.25288538  0.99711462  1
  F  F16  1  0.00288538  0.62500000  0.24711462  1
  F  F17  1  0.50288538  0.87500000  0.75288538  1
  F  F18  1  0.49711462  0.37500000  0.74711462  1
  F  F19  1  0.99711462  0.12500000  0.25288538  1
  F  F20  1  0.24711462  0.00288538  0.62500000  1
  F  F21  1  0.75288538  0.50288538  0.87500000  1
  F  F22  1  0.74711462  0.49711462  0.37500000  1
  F  F23  1  0.25288538  0.99711462  0.12500000  1
  F  F24  1  0.74416512  0.00000000  0.25000000  1
  F  F25  1  0.75583488  0.00000000  0.75000000  1
  F  F26  1  0.25000000  0.74416512  0.00000000  1
  F  F27  1  0.75000000  0.75583488  0.00000000  1
  F  F28  1  0.00000000  0.25000000  0.74416512  1
  F  F29  1  0.00000000  0.75000000  0.75583488  1
  F  F30  1  0.75000000  0.99416512  0.00000000  1
  F  F31  1  0.75000000  0.00583488  0.50000000  1
  F  F32  1  0.49416512  0.50000000  0.25000000  1
  F  F33  1  0.50583488  0.00000000  0.25000000  1
  F  F34  1  0.00000000  0.25000000  0.50583488  1
  F  F35  1  0.50000000  0.25000000  0.49416512  1
  F  F36  1  0.24416512  0.50000000  0.75000000  1
  F  F37  1  0.25583488  0.50000000  0.25000000  1
  F  F38  1  0.75000000  0.24416512  0.50000000  1
  F  F39  1  0.25000000  0.25583488  0.50000000  1
  F  F40  1  0.50000000  0.75000000  0.24416512  1
  F  F41  1  0.50000000  0.25000000  0.25583488  1
  F  F42  1  0.25000000  0.49416512  0.50000000  1
  F  F43  1  0.25000000  0.50583488  0.00000000  1
  F  F44  1  0.99416512  0.00000000  0.75000000  1
  F  F45  1  0.00583488  0.50000000  0.75000000  1
  F  F46  1  0.50000000  0.75000000  0.00583488  1
  F  F47  1  0.00000000  0.75000000  0.99416512  1
  Li  Li48  1  0.68636532  0.17791087  0.92754099  1
  Li  Li49  1  -0.18636532  -0.17791087  1.42754099  1
  Li  Li50  1  -0.68636532  0.67791087  -0.42754099  1
  Li  Li51  1  1.18636532  0.32208913  -0.92754099  1
  Li  Li52  1  0.92754099  0.68636532  0.17791087  1
  Li  Li53  1  1.42754099  -0.18636532  -0.17791087  1
  Li  Li54  1  -0.42754099  -0.68636532  0.67791087  1
  Li  Li55  1  -0.92754099  1.18636532  0.32208913  1
  Li  Li56  1  0.17791087  0.92754099  0.68636532  1
  Li  Li57  1  -0.17791087  1.42754099  -0.18636532  1
  Li  Li58  1  0.67791087  -0.42754099  -0.68636532  1
  Li  Li59  1  0.32208913  -0.92754099  1.18636532  1
  Li  Li60  1  0.92791087  0.93636532  -0.67754099  1
  Li  Li61  1  0.57208913  0.06363468  -0.17754099  1
  Li  Li62  1  0.42791087  -0.43636532  1.67754099  1
  Li  Li63  1  0.07208913  1.43636532  1.17754099  1
  Li  Li64  1  1.43636532  1.17754099  0.07208913  1
  Li  Li65  1  -0.43636532  1.67754099  0.42791087  1
  Li  Li66  1  0.06363468  -0.17754099  0.57208913  1
  Li  Li67  1  0.93636532  -0.67754099  0.92791087  1
  Li  Li68  1  1.67754099  0.42791087  -0.43636532  1
  Li  Li69  1  1.17754099  0.07208913  1.43636532  1
  Li  Li70  1  -0.67754099  0.92791087  0.93636532  1
  Li  Li71  1  -0.17754099  0.57208913  0.06363468  1
  Li  Li72  1  1.18636532  0.67791087  1.42754099  1
  Li  Li73  1  0.31363468  0.32208913  1.92754099  1
  Li  Li74  1  -0.18636532  1.17791087  0.07245901  1
  Li  Li75  1  1.68636532  0.82208913  -0.42754099  1
  Li  Li76  1  1.42754099  1.18636532  0.67791087  1
  Li  Li77  1  1.92754099  0.31363468  0.32208913  1
  Li  Li78  1  0.07245901  -0.18636532  1.17791087  1
  Li  Li79  1  -0.42754099  1.68636532  0.82208913  1
  Li  Li80  1  0.67791087  1.42754099  1.18636532  1
  Li  Li81  1  0.32208913  1.92754099  0.31363468  1
  Li  Li82  1  1.17791087  0.07245901  -0.18636532  1
  Li  Li83  1  0.82208913  -0.42754099  1.68636532  1
  Li  Li84  1  1.42791087  1.43636532  -0.17754099  1
  Li  Li85  1  1.07208913  0.56363468  0.32245901  1
  Li  Li86  1  0.92791087  0.06363468  2.17754099  1
  Li  Li87  1  0.57208913  1.93636532  1.67754099  1
  Li  Li88  1  1.93636532  1.67754099  0.57208913  1
  Li  Li89  1  0.06363468  2.17754099  0.92791087  1
  Li  Li90  1  0.56363468  0.32245901  1.07208913  1
  Li  Li91  1  1.43636532  -0.17754099  1.42791087  1
  Li  Li92  1  2.17754099  0.92791087  0.06363468  1
  Li  Li93  1  1.67754099  0.57208913  1.93636532  1
  Li  Li94  1  -0.17754099  1.42791087  1.43636532  1
  Li  Li95  1  0.32245901  1.07208913  0.56363468  1
  Li  Li96  1  0.26789517  0.69883600  0.31826565  1
  Li  Li97  1  0.23210483  0.30116400  0.81826565  1
  Li  Li98  1  0.73210483  0.19883600  0.18173435  1
  Li  Li99  1  0.76789517  0.80116400  0.68173435  1
  Li  Li100  1  0.31826565  0.26789517  0.69883600  1
  Li  Li101  1  0.81826565  0.23210483  0.30116400  1
  Li  Li102  1  0.18173435  0.73210483  0.19883600  1
  Li  Li103  1  0.68173435  0.76789517  0.80116400  1
  Li  Li104  1  0.69883600  0.31826565  0.26789517  1
  Li  Li105  1  0.30116400  0.81826565  0.23210483  1
  Li  Li106  1  0.19883600  0.18173435  0.73210483  1
  Li  Li107  1  0.80116400  0.68173435  0.76789517  1
  Li  Li108  1  0.44883600  0.51789517  0.93173435  1
  Li  Li109  1  0.05116400  0.48210483  0.43173435  1
  Li  Li110  1  0.94883600  0.98210483  0.06826565  1
  Li  Li111  1  0.55116400  0.01789517  0.56826565  1
  Li  Li112  1  0.01789517  0.56826565  0.55116400  1
  Li  Li113  1  0.98210483  0.06826565  0.94883600  1
  Li  Li114  1  0.48210483  0.43173435  0.05116400  1
  Li  Li115  1  0.51789517  0.93173435  0.44883600  1
  Li  Li116  1  0.06826565  0.94883600  0.98210483  1
  Li  Li117  1  0.56826565  0.55116400  0.01789517  1
  Li  Li118  1  0.93173435  0.44883600  0.51789517  1
  Li  Li119  1  0.43173435  0.05116400  0.48210483  1
  Li  Li120  1  0.76789517  0.19883600  0.81826565  1
  Li  Li121  1  0.73210483  0.80116400  0.31826565  1
  Li  Li122  1  0.23210483  0.69883600  0.68173435  1
  Li  Li123  1  0.26789517  0.30116400  0.18173435  1
  Li  Li124  1  0.81826565  0.76789517  0.19883600  1
  Li  Li125  1  0.31826565  0.73210483  0.80116400  1
  Li  Li126  1  0.68173435  0.23210483  0.69883600  1
  Li  Li127  1  0.18173435  0.26789517  0.30116400  1
  Li  Li128  1  0.19883600  0.81826565  0.76789517  1
  Li  Li129  1  0.80116400  0.31826565  0.73210483  1
  Li  Li130  1  0.69883600  0.68173435  0.23210483  1
  Li  Li131  1  0.30116400  0.18173435  0.26789517  1
  Li  Li132  1  0.94883600  0.01789517  0.43173435  1
  Li  Li133  1  0.55116400  0.98210483  0.93173435  1
  Li  Li134  1  0.44883600  0.48210483  0.56826565  1
  Li  Li135  1  0.05116400  0.51789517  0.06826565  1
  Li  Li136  1  0.51789517  0.06826565  0.05116400  1
  Li  Li137  1  0.48210483  0.56826565  0.44883600  1
  Li  Li138  1  0.98210483  0.93173435  0.55116400  1
  Li  Li139  1  0.01789517  0.43173435  0.94883600  1
  Li  Li140  1  0.56826565  0.44883600  0.48210483  1
  Li  Li141  1  0.06826565  0.05116400  0.51789517  1
  Li  Li142  1  0.43173435  0.94883600  0.01789517  1
  Li  Li143  1  0.93173435  0.55116400  0.98210483  1
  Te  Te144  1  0.12500000  0.20952725  0.45952725  1
  Te  Te145  1  0.37500000  0.79047275  0.95952725  1
  Te  Te146  1  0.87500000  0.70952725  0.04047275  1
  Te  Te147  1  0.62500000  0.29047275  0.54047275  1
  Te  Te148  1  0.45952725  0.12500000  0.20952725  1
  Te  Te149  1  0.95952725  0.37500000  0.79047275  1
  Te  Te150  1  0.04047275  0.87500000  0.70952725  1
  Te  Te151  1  0.54047275  0.62500000  0.29047275  1
  Te  Te152  1  0.20952725  0.45952725  0.12500000  1
  Te  Te153  1  0.79047275  0.95952725  0.37500000  1
  Te  Te154  1  0.70952725  0.04047275  0.87500000  1
  Te  Te155  1  0.29047275  0.54047275  0.62500000  1
  Te  Te156  1  0.62500000  0.70952725  0.95952725  1
  Te  Te157  1  0.87500000  0.29047275  0.45952725  1
  Te  Te158  1  0.37500000  0.20952725  0.54047275  1
  Te  Te159  1  0.12500000  0.79047275  0.04047275  1
  Te  Te160  1  0.95952725  0.62500000  0.70952725  1
  Te  Te161  1  0.45952725  0.87500000  0.29047275  1
  Te  Te162  1  0.54047275  0.37500000  0.20952725  1
  Te  Te163  1  0.04047275  0.12500000  0.79047275  1
  Te  Te164  1  0.70952725  0.95952725  0.62500000  1
  Te  Te165  1  0.29047275  0.45952725  0.87500000  1
  Te  Te166  1  0.20952725  0.54047275  0.37500000  1
  Te  Te167  1  0.79047275  0.04047275  0.12500000  1
