# generated using pymatgen
data_LiF
_symmetry_space_group_name_H-M   'P 1'
_cell_length_a   8.31559330
_cell_length_b   8.31559330
_cell_length_c   18.27157194
_cell_angle_alpha   90.00000000
_cell_angle_beta   90.00000000
_cell_angle_gamma   120.00000000
_symmetry_Int_Tables_number   1
_chemical_formula_structural   LiF
_chemical_formula_sum   'Li29 F29'
_cell_volume   1094.19071393
_cell_formula_units_Z   29
loop_
 _symmetry_equiv_pos_site_id
 _symmetry_equiv_pos_as_xyz
  1  'x, y, z'
loop_
 _atom_site_type_symbol
 _atom_site_label
 _atom_site_symmetry_multiplicity
 _atom_site_fract_x
 _atom_site_fract_y
 _atom_site_fract_z
 _atom_site_occupancy
  F  F0  1  0.43908885  0.07655212  0.01352766  1
  F  F1  1  0.92344788  0.36253674  0.01352766  1
  F  F2  1  0.63746326  0.56091115  0.01352766  1
  F  F3  1  0.92344788  0.56091115  0.98647234  1
  F  F4  1  0.63746326  0.07655212  0.98647234  1
  F  F5  1  0.43908885  0.36253674  0.98647234  1
  F  F6  1  0.33333333  0.66666667  0.60642365  1
  F  F7  1  0.33333333  0.66666667  0.39357635  1
  F  F8  1  0.82608764  0.28233448  0.39282426  1
  F  F9  1  0.71766552  0.54375315  0.39282426  1
  F  F10  1  0.45624685  0.17391236  0.39282426  1
  F  F11  1  0.71766552  0.17391236  0.60717574  1
  F  F12  1  0.45624685  0.28233448  0.60717574  1
  F  F13  1  0.82608764  0.54375315  0.60717574  1
  F  F14  1  0.33209709  0.23425752  0.28448954  1
  F  F15  1  0.76574248  0.09783957  0.28448954  1
  F  F16  1  0.90216043  0.66790291  0.28448954  1
  F  F17  1  0.76574248  0.66790291  0.71551046  1
  F  F18  1  0.90216043  0.23425752  0.71551046  1
  F  F19  1  0.33209709  0.09783957  0.71551046  1
  F  F20  1  0.66666667  0.33333333  0.72924523  1
  F  F21  1  0.66666667  0.33333333  0.27075477  1
  F  F22  1  0.28184718  0.01972040  0.94098725  1
  F  F23  1  0.98027960  0.26212678  0.94098725  1
  F  F24  1  0.73787322  0.71815282  0.94098725  1
  F  F25  1  0.98027960  0.71815282  0.05901275  1
  F  F26  1  0.73787322  0.01972040  0.05901275  1
  F  F27  1  0.28184718  0.26212678  0.05901275  1
  F  F28  1  0.66666667  0.33333333  0.50000000  1
  Li  Li29  1  0.33333333  0.66666667  -0.00000000  1
  Li  Li30  1  0.87285050  0.74861820  0.82591955  1
  Li  Li31  1  -0.74861820  0.12423230  0.82591955  1
  Li  Li32  1  -0.12423230  -0.87285050  0.82591955  1
  Li  Li33  1  -0.74861820  -0.87285050  -0.82591955  1
  Li  Li34  1  -0.12423230  0.74861820  -0.82591955  1
  Li  Li35  1  0.87285050  0.12423230  -0.82591955  1
  Li  Li36  1  0.42296181  0.54834701  0.07356933  1
  Li  Li37  1  0.45165299  0.87461480  0.07356933  1
  Li  Li38  1  0.12538520  0.57703819  0.07356933  1
  Li  Li39  1  0.45165299  0.57703819  0.92643067  1
  Li  Li40  1  0.12538520  0.54834701  0.92643067  1
  Li  Li41  1  0.42296181  0.87461480  0.92643067  1
  Li  Li42  1  0.00000000  0.00000000  0.00000000  1
  Li  Li43  1  0.00000000  0.00000000  0.50000000  1
  Li  Li44  1  0.59829769  0.80415475  0.76910944  1
  Li  Li45  1  0.19584525  0.79414295  0.76910944  1
  Li  Li46  1  0.20585705  0.40170231  0.76910944  1
  Li  Li47  1  0.19584525  0.40170231  0.23089056  1
  Li  Li48  1  0.20585705  0.80415475  0.23089056  1
  Li  Li49  1  0.59829769  0.79414295  0.23089056  1
  Li  Li50  1  0.61607837  0.81193150  0.92063420  1
  Li  Li51  1  0.18806850  0.80414686  0.92063420  1
  Li  Li52  1  0.19585314  0.38392163  0.92063420  1
  Li  Li53  1  0.18806850  0.38392163  0.07936580  1
  Li  Li54  1  0.19585314  0.81193150  0.07936580  1
  Li  Li55  1  0.61607837  0.80414686  0.07936580  1
  Li  Li56  1  0.66666667  0.33333333  0.12244641  1
  Li  Li57  1  0.66666667  0.33333333  0.87755359  1
