# generated using pymatgen
data_LiF
_symmetry_space_group_name_H-M   'P 1'
_cell_length_a   12.77814737
_cell_length_b   12.77814737
_cell_length_c   12.40828479
_cell_angle_alpha   90.00000000
_cell_angle_beta   90.00000000
_cell_angle_gamma   120.00000000
_symmetry_Int_Tables_number   1
_chemical_formula_structural   LiF
_chemical_formula_sum   'Li43 F43'
_cell_volume   1754.60017933
_cell_formula_units_Z   43
loop_
 _symmetry_equiv_pos_site_id
 _symmetry_equiv_pos_as_xyz
  1  'x, y, z'
loop_
 _atom_site_type_symbol
 _atom_site_label
 _atom_site_symmetry_multiplicity
 _atom_site_fract_x
 _atom_site_fract_y
 _atom_site_fract_z
 _atom_site_occupancy
  F  F0  1  0.00000000  0.00000000  0.50000000  1
  F  F1  1  0.36222007  0.90919104  0.01835640  1
  F  F2  1  0.09080896  0.45302903  0.01835640  1
  F  F3  1  0.54697097  0.63777993  0.01835640  1
  F  F4  1  0.09080896  0.63777993  0.98164360  1
  F  F5  1  0.54697097  0.90919104  0.98164360  1
  F  F6  1  0.36222007  0.45302903  0.98164360  1
  F  F7  1  0.98275559  0.08664960  0.01951767  1
  F  F8  1  0.91335040  0.89610599  0.01951767  1
  F  F9  1  0.10389401  0.01724441  0.01951767  1
  F  F10  1  0.91335040  0.01724441  0.98048233  1
  F  F11  1  0.10389401  0.08664960  0.98048233  1
  F  F12  1  0.98275559  0.89610599  0.98048233  1
  F  F13  1  0.36051716  0.63243172  0.86500047  1
  F  F14  1  0.36756828  0.72808543  0.86500047  1
  F  F15  1  0.27191457  0.63948284  0.86500047  1
  F  F16  1  0.36756828  0.63948284  0.13499953  1
  F  F17  1  0.27191457  0.63243172  0.13499953  1
  F  F18  1  0.36051716  0.72808543  0.13499953  1
  F  F19  1  0.66666667  0.33333333  0.76308500  1
  F  F20  1  0.66666667  0.33333333  0.23691500  1
  F  F21  1  0.00000000  0.00000000  0.00000000  1
  F  F22  1  0.50687778  0.36326004  0.67932431  1
  F  F23  1  0.63673996  0.14361773  0.67932431  1
  F  F24  1  0.85638227  0.49312222  0.67932431  1
  F  F25  1  0.63673996  0.49312222  0.32067569  1
  F  F26  1  0.85638227  0.36326004  0.32067569  1
  F  F27  1  0.50687778  0.14361773  0.32067569  1
  F  F28  1  0.87852653  0.83828227  0.47360890  1
  F  F29  1  0.16171773  0.04024426  0.47360890  1
  F  F30  1  0.95975574  0.12147347  0.47360890  1
  F  F31  1  0.16171773  0.12147347  0.52639110  1
  F  F32  1  0.95975574  0.83828227  0.52639110  1
  F  F33  1  0.87852653  0.04024426  0.52639110  1
  F  F34  1  0.00000000  0.00000000  0.41558556  1
  F  F35  1  0.00000000  0.00000000  0.58441444  1
  F  F36  1  0.52869905  0.59344817  0.63216176  1
  F  F37  1  0.40655183  0.93525087  0.63216176  1
  F  F38  1  0.06474913  0.47130095  0.63216176  1
  F  F39  1  0.40655183  0.47130095  0.36783824  1
  F  F40  1  0.06474913  0.59344817  0.36783824  1
  F  F41  1  0.52869905  0.93525087  0.36783824  1
  F  F42  1  0.66666667  0.33333333  0.50000000  1
  Li  Li43  1  0.73856048  0.85807783  0.83305093  1
  Li  Li44  1  -0.85807783  -0.11951735  0.83305093  1
  Li  Li45  1  0.11951735  -0.73856048  0.83305093  1
  Li  Li46  1  -0.85807783  -0.73856048  -0.83305093  1
  Li  Li47  1  0.11951735  0.85807783  -0.83305093  1
  Li  Li48  1  0.73856048  -0.11951735  -0.83305093  1
  Li  Li49  1  0.72815129  0.88679918  0.40011295  1
  Li  Li50  1  0.11320082  0.84135211  0.40011295  1
  Li  Li51  1  0.15864789  0.27184871  0.40011295  1
  Li  Li52  1  0.11320082  0.27184871  0.59988705  1
  Li  Li53  1  0.15864789  0.88679918  0.59988705  1
  Li  Li54  1  0.72815129  0.84135211  0.59988705  1
  Li  Li55  1  0.33333333  0.66666667  0.00000000  1
  Li  Li56  1  0.83479098  0.16520902  0.50000000  1
  Li  Li57  1  0.83479098  0.66958195  0.50000000  1
  Li  Li58  1  0.33041805  0.16520902  0.50000000  1
  Li  Li59  1  0.33333333  0.66666667  0.50000000  1
  Li  Li60  1  0.66666667  0.33333333  0.59698124  1
  Li  Li61  1  0.66666667  0.33333333  0.40301876  1
  Li  Li62  1  0.45789594  0.46517848  0.60071555  1
  Li  Li63  1  0.53482152  0.99271745  0.60071555  1
  Li  Li64  1  0.00728255  0.54210406  0.60071555  1
  Li  Li65  1  0.53482152  0.54210406  0.39928445  1
  Li  Li66  1  0.00728255  0.46517848  0.39928445  1
  Li  Li67  1  0.45789594  0.99271745  0.39928445  1
  Li  Li68  1  0.78426246  0.66441670  0.08038848  1
  Li  Li69  1  0.33558330  0.11984576  0.08038848  1
  Li  Li70  1  0.88015424  0.21573754  0.08038848  1
  Li  Li71  1  0.33558330  0.21573754  0.91961152  1
  Li  Li72  1  0.88015424  0.66441670  0.91961152  1
  Li  Li73  1  0.78426246  0.11984576  0.91961152  1
  Li  Li74  1  0.95696742  0.04303258  0.50000000  1
  Li  Li75  1  0.95696742  0.91393485  0.50000000  1
  Li  Li76  1  0.08606515  0.04303258  0.50000000  1
  Li  Li77  1  0.49851060  0.36021014  0.89911764  1
  Li  Li78  1  0.63978986  0.13830046  0.89911764  1
  Li  Li79  1  0.86169954  0.50148940  0.89911764  1
  Li  Li80  1  0.63978986  0.50148940  0.10088236  1
  Li  Li81  1  0.86169954  0.36021014  0.10088236  1
  Li  Li82  1  0.49851060  0.13830046  0.10088236  1
  Li  Li83  1  0.07286290  0.92713710  0.50000000  1
  Li  Li84  1  0.07286290  0.14572580  0.50000000  1
  Li  Li85  1  0.85427420  0.92713710  0.50000000  1
