# generated using pymatgen
data_LiF
_symmetry_space_group_name_H-M   'P 1'
_cell_length_a   8.36222811
_cell_length_b   8.36222811
_cell_length_c   8.88568652
_cell_angle_alpha   90.00000000
_cell_angle_beta   90.00000000
_cell_angle_gamma   120.00000000
_symmetry_Int_Tables_number   1
_chemical_formula_structural   LiF
_chemical_formula_sum   'Li18 F18'
_cell_volume   538.10328095
_cell_formula_units_Z   18
loop_
 _symmetry_equiv_pos_site_id
 _symmetry_equiv_pos_as_xyz
  1  'x, y, z'
loop_
 _atom_site_type_symbol
 _atom_site_label
 _atom_site_symmetry_multiplicity
 _atom_site_fract_x
 _atom_site_fract_y
 _atom_site_fract_z
 _atom_site_occupancy
  F  F0  1  0.66666667  0.33333333  0.89419551  1
  F  F1  1  0.66666667  0.33333333  0.10580449  1
  F  F2  1  0.33333333  0.66666667  -0.00000000  1
  F  F3  1  0.11793006  0.47006189  0.54594399  1
  F  F4  1  0.52993811  0.64786816  0.54594399  1
  F  F5  1  0.35213184  0.88206994  0.54594399  1
  F  F6  1  0.52993811  0.88206994  0.45405601  1
  F  F7  1  0.35213184  0.47006189  0.45405601  1
  F  F8  1  0.11793006  0.64786816  0.45405601  1
  F  F9  1  0.98396723  0.05163325  0.30033367  1
  F  F10  1  0.94836675  0.93233397  0.30033367  1
  F  F11  1  0.06766603  0.01603277  0.30033367  1
  F  F12  1  0.94836675  0.01603277  0.69966633  1
  F  F13  1  0.06766603  0.05163325  0.69966633  1
  F  F14  1  0.98396723  0.93233397  0.69966633  1
  F  F15  1  0.46283539  0.53716461  0.00000000  1
  F  F16  1  0.46283539  0.92567078  -0.00000000  1
  F  F17  1  0.07432922  0.53716461  0.00000000  1
  Li  Li18  1  0.07635797  0.82031881  0.73801069  1
  Li  Li19  1  -0.82031881  -0.74396085  0.73801069  1
  Li  Li20  1  0.74396085  -0.07635797  0.73801069  1
  Li  Li21  1  -0.82031881  -0.07635797  -0.73801069  1
  Li  Li22  1  0.74396085  0.82031881  -0.73801069  1
  Li  Li23  1  0.07635797  -0.74396085  -0.73801069  1
  Li  Li24  1  0.66666667  0.33333333  0.31021013  1
  Li  Li25  1  0.66666667  0.33333333  0.68978987  1
  Li  Li26  1  0.58449404  0.86148994  0.64635172  1
  Li  Li27  1  0.13851006  0.72300410  0.64635172  1
  Li  Li28  1  0.27699590  0.41550596  0.64635172  1
  Li  Li29  1  0.13851006  0.41550596  0.35364828  1
  Li  Li30  1  0.27699590  0.86148994  0.35364828  1
  Li  Li31  1  0.58449404  0.72300410  0.35364828  1
  Li  Li32  1  0.00000000  0.00000000  0.00000000  1
  Li  Li33  1  0.56176118  0.43823882  0.50000000  1
  Li  Li34  1  0.56176118  0.12352237  0.50000000  1
  Li  Li35  1  0.87647763  0.43823882  0.50000000  1
