# generated using pymatgen
data_LiF
_symmetry_space_group_name_H-M   'P 1'
_cell_length_a   13.03365357
_cell_length_b   13.03365357
_cell_length_c   6.22643054
_cell_angle_alpha   90.00000000
_cell_angle_beta   90.00000000
_cell_angle_gamma   90.00000000
_symmetry_Int_Tables_number   1
_chemical_formula_structural   LiF
_chemical_formula_sum   'Li32 F32'
_cell_volume   1057.72189519
_cell_formula_units_Z   32
loop_
 _symmetry_equiv_pos_site_id
 _symmetry_equiv_pos_as_xyz
  1  'x, y, z'
loop_
 _atom_site_type_symbol
 _atom_site_label
 _atom_site_symmetry_multiplicity
 _atom_site_fract_x
 _atom_site_fract_y
 _atom_site_fract_z
 _atom_site_occupancy
  F  F0  1  0.78064595  0.99544946  0.52928604  1
  F  F1  1  0.71935405  0.00455054  0.02928604  1
  F  F2  1  0.25455054  0.53064595  0.77928604  1
  F  F3  1  0.24544946  0.46935405  0.27928604  1
  F  F4  1  0.71935405  0.99544946  0.47071396  1
  F  F5  1  0.78064595  0.00455054  0.97071396  1
  F  F6  1  0.24544946  0.53064595  0.22071396  1
  F  F7  1  0.25455054  0.46935405  0.72071396  1
  F  F8  1  0.21935405  0.00455054  0.47071396  1
  F  F9  1  0.28064595  0.99544946  0.97071396  1
  F  F10  1  0.74544946  0.46935405  0.22071396  1
  F  F11  1  0.75455054  0.53064595  0.72071396  1
  F  F12  1  0.28064595  0.00455054  0.52928604  1
  F  F13  1  0.21935405  0.99544946  0.02928604  1
  F  F14  1  0.75455054  0.46935405  0.77928604  1
  F  F15  1  0.74544946  0.53064595  0.27928604  1
  F  F16  1  0.28064595  0.49544946  0.02928604  1
  F  F17  1  0.21935405  0.50455054  0.52928604  1
  F  F18  1  0.75455054  0.03064595  0.27928604  1
  F  F19  1  0.74544946  0.96935405  0.77928604  1
  F  F20  1  0.21935405  0.49544946  0.97071396  1
  F  F21  1  0.28064595  0.50455054  0.47071396  1
  F  F22  1  0.74544946  0.03064595  0.72071396  1
  F  F23  1  0.75455054  0.96935405  0.22071396  1
  F  F24  1  0.71935405  0.50455054  0.97071396  1
  F  F25  1  0.78064595  0.49544946  0.47071396  1
  F  F26  1  0.24544946  0.96935405  0.72071396  1
  F  F27  1  0.25455054  0.03064595  0.22071396  1
  F  F28  1  0.78064595  0.50455054  0.02928604  1
  F  F29  1  0.71935405  0.49544946  0.52928604  1
  F  F30  1  0.25455054  0.96935405  0.27928604  1
  F  F31  1  0.24544946  0.03064595  0.77928604  1
  Li  Li32  1  0.60085145  0.60102927  0.26337016  1
  Li  Li33  1  -0.10085145  -0.60102927  0.76337016  1
  Li  Li34  1  -0.35102927  1.35085145  0.51337016  1
  Li  Li35  1  0.85102927  -0.35085145  1.01337016  1
  Li  Li36  1  -0.10085145  0.60102927  -0.26337016  1
  Li  Li37  1  0.60085145  -0.60102927  0.23662984  1
  Li  Li38  1  0.85102927  1.35085145  0.48662984  1
  Li  Li39  1  -0.35102927  -0.35085145  -0.01337016  1
  Li  Li40  1  -0.60085145  -0.60102927  -0.26337016  1
  Li  Li41  1  1.10085145  0.60102927  0.23662984  1
  Li  Li42  1  1.35102927  -0.35085145  0.48662984  1
  Li  Li43  1  0.14897073  1.35085145  -0.01337016  1
  Li  Li44  1  1.10085145  -0.60102927  0.26337016  1
  Li  Li45  1  -0.60085145  0.60102927  0.76337016  1
  Li  Li46  1  0.14897073  -0.35085145  0.51337016  1
  Li  Li47  1  1.35102927  1.35085145  1.01337016  1
  Li  Li48  1  1.10085145  1.10102927  0.76337016  1
  Li  Li49  1  0.39914855  -0.10102927  1.26337016  1
  Li  Li50  1  0.14897073  1.85085145  1.01337016  1
  Li  Li51  1  1.35102927  0.14914855  1.51337016  1
  Li  Li52  1  0.39914855  1.10102927  0.23662984  1
  Li  Li53  1  1.10085145  -0.10102927  0.73662984  1
  Li  Li54  1  1.35102927  1.85085145  0.98662984  1
  Li  Li55  1  0.14897073  0.14914855  0.48662984  1
  Li  Li56  1  -0.10085145  -0.10102927  0.23662984  1
  Li  Li57  1  1.60085145  1.10102927  0.73662984  1
  Li  Li58  1  1.85102927  0.14914855  0.98662984  1
  Li  Li59  1  0.64897073  1.85085145  0.48662984  1
  Li  Li60  1  1.60085145  -0.10102927  0.76337016  1
  Li  Li61  1  -0.10085145  1.10102927  1.26337016  1
  Li  Li62  1  0.64897073  0.14914855  1.01337016  1
  Li  Li63  1  1.85102927  1.85085145  1.51337016  1
