# generated using pymatgen
data_Li2Y2As4P3
_symmetry_space_group_name_H-M   'P 1'
_cell_length_a   4.76734679
_cell_length_b   4.86056290
_cell_length_c   6.86648504
_cell_angle_alpha   95.11901786
_cell_angle_beta   101.14815667
_cell_angle_gamma   110.56106021
_symmetry_Int_Tables_number   1
_chemical_formula_structural   Li2Y2As4P3
_chemical_formula_sum   'Li2 Y2 As4 P3'
_cell_volume   144.00944203
_cell_formula_units_Z   1
loop_
 _symmetry_equiv_pos_site_id
 _symmetry_equiv_pos_as_xyz
  1  'x, y, z'
loop_
 _atom_site_type_symbol
 _atom_site_label
 _atom_site_symmetry_multiplicity
 _atom_site_fract_x
 _atom_site_fract_y
 _atom_site_fract_z
 _atom_site_occupancy
  P  P0  1  0.00000000  0.00000000  0.00000000  1
  P  P1  1  0.50000000  0.50000000  0.50000000  1
  P  P2  1  0.25000000  0.25000000  0.25000000  1
  As  As3  1  0.75000000  0.25000000  0.00000000  1
  As  As4  1  0.25000000  0.75000000  0.50000000  1
  As  As5  1  0.61189646  0.72399915  0.14369336  1
  As  As6  1  0.85111103  0.30619885  0.26322035  1
  Li  Li7  1  0.79282104  0.91039038  0.95620396  1
  Li  Li8  1  0.52332082  0.49181882  0.37814628  1
  Y  Y9  1  0.41927740  0.97537236  0.45898879  1
  Y  Y10  1  0.20530306  0.43403102  0.03846130  1
