# generated using pymatgen
data_LiF
_symmetry_space_group_name_H-M   'P 1'
_cell_length_a   5.31742373
_cell_length_b   13.30474868
_cell_length_c   8.00184065
_cell_angle_alpha   90.00000000
_cell_angle_beta   90.00000000
_cell_angle_gamma   90.00000000
_symmetry_Int_Tables_number   1
_chemical_formula_structural   LiF
_chemical_formula_sum   'Li24 F24'
_cell_volume   566.10611093
_cell_formula_units_Z   24
loop_
 _symmetry_equiv_pos_site_id
 _symmetry_equiv_pos_as_xyz
  1  'x, y, z'
loop_
 _atom_site_type_symbol
 _atom_site_label
 _atom_site_symmetry_multiplicity
 _atom_site_fract_x
 _atom_site_fract_y
 _atom_site_fract_z
 _atom_site_occupancy
  F  F0  1  0.10120263  0.90544012  0.50390326  1
  F  F1  1  0.39879737  0.09455988  0.00390326  1
  F  F2  1  0.89879737  0.40544012  0.49609674  1
  F  F3  1  0.60120263  0.59455988  0.99609674  1
  F  F4  1  0.89879737  0.09455988  0.49609674  1
  F  F5  1  0.60120263  0.90544012  0.99609674  1
  F  F6  1  0.10120263  0.59455988  0.50390326  1
  F  F7  1  0.39879737  0.40544012  0.00390326  1
  F  F8  1  0.58639184  0.81877063  0.43504598  1
  F  F9  1  0.91360816  0.18122937  0.93504598  1
  F  F10  1  0.41360816  0.31877063  0.56495402  1
  F  F11  1  0.08639184  0.68122937  0.06495402  1
  F  F12  1  0.41360816  0.18122937  0.56495402  1
  F  F13  1  0.08639184  0.81877063  0.06495402  1
  F  F14  1  0.58639184  0.68122937  0.43504598  1
  F  F15  1  0.91360816  0.31877063  0.93504598  1
  F  F16  1  0.00000000  0.00000000  0.50000000  1
  F  F17  1  0.50000000  0.00000000  -0.00000000  1
  F  F18  1  0.00000000  0.50000000  0.50000000  1
  F  F19  1  0.50000000  0.50000000  -0.00000000  1
  F  F20  1  0.00509191  0.25000000  0.70494984  1
  F  F21  1  0.49490809  0.75000000  0.20494984  1
  F  F22  1  0.99490809  0.75000000  0.29505016  1
  F  F23  1  0.50509191  0.25000000  0.79505016  1
  Li  Li24  1  0.00000000  0.00000000  0.00000000  1
  Li  Li25  1  0.50000000  0.00000000  0.50000000  1
  Li  Li26  1  0.00000000  0.50000000  0.00000000  1
  Li  Li27  1  0.50000000  0.50000000  0.50000000  1
  Li  Li28  1  0.81797622  0.25000000  0.29696655  1
  Li  Li29  1  0.68202378  0.75000000  0.79696655  1
  Li  Li30  1  0.18202378  0.75000000  0.70303345  1
  Li  Li31  1  0.31797622  0.25000000  0.20303345  1
  Li  Li32  1  0.78656746  0.16652015  0.56066100  1
  Li  Li33  1  -0.28656746  -0.16652015  1.06066100  1
  Li  Li34  1  -0.78656746  0.66652015  -0.56066100  1
  Li  Li35  1  1.28656746  0.33347985  -0.06066100  1
  Li  Li36  1  -0.78656746  -0.16652015  -0.56066100  1
  Li  Li37  1  1.28656746  0.16652015  -0.06066100  1
  Li  Li38  1  0.78656746  0.33347985  0.56066100  1
  Li  Li39  1  -0.28656746  0.66652015  1.06066100  1
  Li  Li40  1  0.37876294  0.67665094  0.28069235  1
  Li  Li41  1  0.12123706  0.32334906  0.78069235  1
  Li  Li42  1  0.62123706  0.17665094  0.71930765  1
  Li  Li43  1  0.87876294  0.82334906  0.21930765  1
  Li  Li44  1  0.62123706  0.32334906  0.71930765  1
  Li  Li45  1  0.87876294  0.67665094  0.21930765  1
  Li  Li46  1  0.37876294  0.82334906  0.28069235  1
  Li  Li47  1  0.12123706  0.17665094  0.78069235  1
