# generated using pymatgen
data_LiF
_symmetry_space_group_name_H-M   'P 1'
_cell_length_a   11.16557083
_cell_length_b   11.16557083
_cell_length_c   3.25282937
_cell_angle_alpha   90.00000000
_cell_angle_beta   90.00000000
_cell_angle_gamma   120.00000000
_symmetry_Int_Tables_number   1
_chemical_formula_structural   LiF
_chemical_formula_sum   'Li12 F12'
_cell_volume   351.19940840
_cell_formula_units_Z   12
loop_
 _symmetry_equiv_pos_site_id
 _symmetry_equiv_pos_as_xyz
  1  'x, y, z'
loop_
 _atom_site_type_symbol
 _atom_site_label
 _atom_site_symmetry_multiplicity
 _atom_site_fract_x
 _atom_site_fract_y
 _atom_site_fract_z
 _atom_site_occupancy
  F  F0  1  0.66666667  0.33333333  0.36707251  1
  F  F1  1  0.66666667  0.33333333  0.63292749  1
  F  F2  1  0.03208695  0.52395694  0.17055950  1
  F  F3  1  0.47604306  0.50813001  0.17055950  1
  F  F4  1  0.49186999  0.96791305  0.17055950  1
  F  F5  1  0.47604306  0.96791305  0.82944050  1
  F  F6  1  0.49186999  0.52395694  0.82944050  1
  F  F7  1  0.03208695  0.50813001  0.82944050  1
  F  F8  1  0.00000000  0.00000000  0.00000000  1
  F  F9  1  0.80230728  0.19769272  -0.00000000  1
  F  F10  1  0.80230728  0.60461456  -0.00000000  1
  F  F11  1  0.39538544  0.19769272  0.00000000  1
  Li  Li12  1  0.35394541  0.47626762  0.70601400  1
  Li  Li13  1  -0.47626762  -0.12232221  0.70601400  1
  Li  Li14  1  0.12232221  -0.35394541  0.70601400  1
  Li  Li15  1  -0.47626762  -0.35394541  -0.70601400  1
  Li  Li16  1  0.12232221  0.47626762  -0.70601400  1
  Li  Li17  1  0.35394541  -0.12232221  -0.70601400  1
  Li  Li18  1  0.23496674  0.01936464  0.17893663  1
  Li  Li19  1  0.98063536  0.21560210  0.17893663  1
  Li  Li20  1  0.78439790  0.76503326  0.17893663  1
  Li  Li21  1  0.98063536  0.76503326  0.82106337  1
  Li  Li22  1  0.78439790  0.01936464  0.82106337  1
  Li  Li23  1  0.23496674  0.21560210  0.82106337  1
