# generated using pymatgen
data_Li2Y2(AsP)3
_symmetry_space_group_name_H-M   'P 1'
_cell_length_a   4.36405636
_cell_length_b   4.55416175
_cell_length_c   6.68649340
_cell_angle_alpha   95.80014771
_cell_angle_beta   102.11536135
_cell_angle_gamma   111.38882944
_symmetry_Int_Tables_number   1
_chemical_formula_structural   Li2Y2(AsP)3
_chemical_formula_sum   'Li2 Y2 As3 P3'
_cell_volume   118.65834616
_cell_formula_units_Z   1
loop_
 _symmetry_equiv_pos_site_id
 _symmetry_equiv_pos_as_xyz
  1  'x, y, z'
loop_
 _atom_site_type_symbol
 _atom_site_label
 _atom_site_symmetry_multiplicity
 _atom_site_fract_x
 _atom_site_fract_y
 _atom_site_fract_z
 _atom_site_occupancy
  P  P0  1  0.12500000  0.12500000  0.12500000  1
  P  P1  1  0.50000000  0.50000000  0.50000000  1
  P  P2  1  0.25000000  0.25000000  0.25000000  1
  As  As3  1  0.75000000  0.75000000  0.75000000  1
  As  As4  1  0.49472611  0.39673653  0.31721488  1
  As  As5  1  0.14838816  0.95115435  0.73367482  1
  Li  Li6  1  0.05524533  0.78893858  0.26205120  1
  Li  Li7  1  0.45133026  0.41518436  0.37462819  1
  Y  Y8  1  0.06483867  0.00606306  0.92389527  1
  Y  Y9  1  0.76502687  0.07630110  0.30498065  1
