# generated using pymatgen
data_LiF
_symmetry_space_group_name_H-M   'P 1'
_cell_length_a   8.98745343
_cell_length_b   8.98745343
_cell_length_c   4.70065613
_cell_angle_alpha   90.00000000
_cell_angle_beta   90.00000000
_cell_angle_gamma   120.00000000
_symmetry_Int_Tables_number   1
_chemical_formula_structural   LiF
_chemical_formula_sum   'Li18 F18'
_cell_volume   328.82317578
_cell_formula_units_Z   18
loop_
 _symmetry_equiv_pos_site_id
 _symmetry_equiv_pos_as_xyz
  1  'x, y, z'
loop_
 _atom_site_type_symbol
 _atom_site_label
 _atom_site_symmetry_multiplicity
 _atom_site_fract_x
 _atom_site_fract_y
 _atom_site_fract_z
 _atom_site_occupancy
  F  F0  1  0.24274903  0.05727903  0.41334367  1
  F  F1  1  -0.05727903  0.18547001  0.41334367  1
  F  F2  1  -0.18547001  -0.24274903  0.41334367  1
  F  F3  1  0.24274903  0.05727903  -0.41334367  1
  F  F4  1  -0.05727903  0.18547001  -0.41334367  1
  F  F5  1  -0.18547001  -0.24274903  -0.41334367  1
  F  F6  1  0.05727903  0.24274903  -0.41334367  1
  F  F7  1  0.18547001  -0.05727903  -0.41334367  1
  F  F8  1  -0.24274903  -0.18547001  -0.41334367  1
  F  F9  1  0.05727903  0.24274903  0.41334367  1
  F  F10  1  0.18547001  -0.05727903  0.41334367  1
  F  F11  1  -0.24274903  -0.18547001  0.41334367  1
  F  F12  1  0.57979523  0.42586885  0.50000000  1
  F  F13  1  0.57413115  0.15392638  0.50000000  1
  F  F14  1  0.84607362  0.42020477  0.50000000  1
  F  F15  1  0.42586885  0.57979523  0.50000000  1
  F  F16  1  0.15392638  0.57413115  0.50000000  1
  F  F17  1  0.42020477  0.84607362  0.50000000  1
  Li  Li18  1  0.74455124  -0.00000000  0.81739487  1
  Li  Li19  1  0.00000000  0.74455124  0.81739487  1
  Li  Li20  1  0.25544876  0.25544876  0.81739487  1
  Li  Li21  1  0.74455124  -0.00000000  0.18260513  1
  Li  Li22  1  0.00000000  0.74455124  0.18260513  1
  Li  Li23  1  0.25544876  0.25544876  0.18260513  1
  Li  Li24  1  0.33333333  0.66666667  0.50000000  1
  Li  Li25  1  0.66666667  0.33333333  0.50000000  1
  Li  Li26  1  0.74754441  -0.00000000  0.50000000  1
  Li  Li27  1  0.00000000  0.74754441  0.50000000  1
  Li  Li28  1  0.25245559  0.25245559  0.50000000  1
  Li  Li29  1  0.19534863  -0.00000000  0.80434765  1
  Li  Li30  1  0.00000000  0.19534863  0.80434765  1
  Li  Li31  1  0.80465137  0.80465137  0.80434765  1
  Li  Li32  1  0.19534863  -0.00000000  0.19565235  1
  Li  Li33  1  0.00000000  0.19534863  0.19565235  1
  Li  Li34  1  0.80465137  0.80465137  0.19565235  1
  Li  Li35  1  0.00000000  0.00000000  0.50000000  1
