# generated using pymatgen
data_LiF
_symmetry_space_group_name_H-M   'P 1'
_cell_length_a   6.78597452
_cell_length_b   6.55105139
_cell_length_c   9.79547352
_cell_angle_alpha   90.00000000
_cell_angle_beta   90.00000000
_cell_angle_gamma   90.00000000
_symmetry_Int_Tables_number   1
_chemical_formula_structural   LiF
_chemical_formula_sum   'Li24 F24'
_cell_volume   435.46039845
_cell_formula_units_Z   24
loop_
 _symmetry_equiv_pos_site_id
 _symmetry_equiv_pos_as_xyz
  1  'x, y, z'
loop_
 _atom_site_type_symbol
 _atom_site_label
 _atom_site_symmetry_multiplicity
 _atom_site_fract_x
 _atom_site_fract_y
 _atom_site_fract_z
 _atom_site_occupancy
  F  F0  1  0.46220363  0.25000000  0.82749429  1
  F  F1  1  0.03779637  0.75000000  0.32749429  1
  F  F2  1  0.53779637  0.75000000  0.17250571  1
  F  F3  1  0.96220363  0.25000000  0.67250571  1
  F  F4  1  0.03418412  0.57291188  0.29223951  1
  F  F5  1  0.46581588  0.42708812  0.79223951  1
  F  F6  1  0.96581588  0.07291188  0.70776049  1
  F  F7  1  0.53418412  0.92708812  0.20776049  1
  F  F8  1  0.96581588  0.42708812  0.70776049  1
  F  F9  1  0.53418412  0.57291188  0.20776049  1
  F  F10  1  0.03418412  0.92708812  0.29223951  1
  F  F11  1  0.46581588  0.07291188  0.79223951  1
  F  F12  1  0.26877072  0.57179330  0.85438065  1
  F  F13  1  0.23122928  0.42820670  0.35438065  1
  F  F14  1  0.73122928  0.07179330  0.14561935  1
  F  F15  1  0.76877072  0.92820670  0.64561935  1
  F  F16  1  0.73122928  0.42820670  0.14561935  1
  F  F17  1  0.76877072  0.57179330  0.64561935  1
  F  F18  1  0.26877072  0.92820670  0.85438065  1
  F  F19  1  0.23122928  0.07179330  0.35438065  1
  F  F20  1  0.66040468  0.25000000  0.48859535  1
  F  F21  1  0.83959532  0.75000000  0.98859535  1
  F  F22  1  0.33959532  0.75000000  0.51140465  1
  F  F23  1  0.16040468  0.25000000  0.01140465  1
  Li  Li24  1  0.29220821  0.64086847  0.27767259  1
  Li  Li25  1  0.20779179  -0.64086847  0.77767259  1
  Li  Li26  1  -0.29220821  1.14086847  -0.27767259  1
  Li  Li27  1  0.79220821  -0.14086847  0.22232741  1
  Li  Li28  1  -0.29220821  -0.64086847  -0.27767259  1
  Li  Li29  1  0.79220821  0.64086847  0.22232741  1
  Li  Li30  1  0.29220821  -0.14086847  0.27767259  1
  Li  Li31  1  0.20779179  1.14086847  0.77767259  1
  Li  Li32  1  0.01301452  0.51679934  0.88379637  1
  Li  Li33  1  0.48698548  0.48320066  0.38379637  1
  Li  Li34  1  0.98698548  0.01679934  0.11620363  1
  Li  Li35  1  0.51301452  0.98320066  0.61620363  1
  Li  Li36  1  0.98698548  0.48320066  0.11620363  1
  Li  Li37  1  0.51301452  0.51679934  0.61620363  1
  Li  Li38  1  0.01301452  0.98320066  0.88379637  1
  Li  Li39  1  0.48698548  0.01679934  0.38379637  1
  Li  Li40  1  0.00000000  0.00000000  0.50000000  1
  Li  Li41  1  0.50000000  0.00000000  0.00000000  1
  Li  Li42  1  0.00000000  0.50000000  0.50000000  1
  Li  Li43  1  0.50000000  0.50000000  0.00000000  1
  Li  Li44  1  0.72870480  0.25000000  0.38004205  1
  Li  Li45  1  0.77129520  0.75000000  0.88004205  1
  Li  Li46  1  0.27129520  0.75000000  0.61995795  1
  Li  Li47  1  0.22870480  0.25000000  0.11995795  1
