# generated using pymatgen
data_LiYTiOF
_symmetry_space_group_name_H-M   'P 1'
_cell_length_a   3.46397126
_cell_length_b   3.24565222
_cell_length_c   5.23491682
_cell_angle_alpha   93.33632743
_cell_angle_beta   101.05195329
_cell_angle_gamma   103.46597535
_symmetry_Int_Tables_number   1
_chemical_formula_structural   LiYTiOF
_chemical_formula_sum   'Li1 Y1 Ti1 O1 F1'
_cell_volume   55.84878616
_cell_formula_units_Z   1
loop_
 _symmetry_equiv_pos_site_id
 _symmetry_equiv_pos_as_xyz
  1  'x, y, z'
loop_
 _atom_site_type_symbol
 _atom_site_label
 _atom_site_symmetry_multiplicity
 _atom_site_fract_x
 _atom_site_fract_y
 _atom_site_fract_z
 _atom_site_occupancy
  F  F0  1  0.12500000  0.00000000  0.25000000  1
  Li  Li1  1  0.00000000  0.00000000  0.00000000  1
  O  O2  1  0.37500000  0.00000000  0.25000000  1
  Ti  Ti3  1  0.25000000  0.25000000  0.25000000  1
  Y  Y4  1  0.00000000  0.25000000  0.12500000  1
