# generated using pymatgen
data_Li3Y2Sb2P3Se
_symmetry_space_group_name_H-M   'P 1'
_cell_length_a   4.94940717
_cell_length_b   5.13828320
_cell_length_c   6.31658004
_cell_angle_alpha   94.09219350
_cell_angle_beta   96.02003154
_cell_angle_gamma   101.90142656
_symmetry_Int_Tables_number   1
_chemical_formula_structural   Li3Y2Sb2P3Se
_chemical_formula_sum   'Li3 Y2 Sb2 P3 Se1'
_cell_volume   155.60448033
_cell_formula_units_Z   1
loop_
 _symmetry_equiv_pos_site_id
 _symmetry_equiv_pos_as_xyz
  1  'x, y, z'
loop_
 _atom_site_type_symbol
 _atom_site_label
 _atom_site_symmetry_multiplicity
 _atom_site_fract_x
 _atom_site_fract_y
 _atom_site_fract_z
 _atom_site_occupancy
  Se  Se0  1  0.12500000  0.00000000  0.25000000  1
  Y  Y1  1  0.00000000  0.00000000  0.00000000  1
  Y  Y2  1  0.37500000  0.00000000  0.25000000  1
  P  P3  1  0.25000000  0.25000000  0.25000000  1
  P  P4  1  0.00000000  0.25000000  0.12500000  1
  P  P5  1  0.40667924  0.74277921  0.04323270  1
  Li  Li6  1  0.31438728  0.16743496  0.36973707  1
  Li  Li7  1  0.49838073  0.59459789  0.62513864  1
  Li  Li8  1  0.11355599  0.95182814  0.03602056  1
  Sb  Sb9  1  0.42022047  0.59228265  0.66390247  1
  Sb  Sb10  1  0.37152852  0.32841786  0.45144958  1
