# generated using pymatgen
data_Li2Ca3F8
_symmetry_space_group_name_H-M   'P 1'
_cell_length_a   9.54096452
_cell_length_b   9.54096452
_cell_length_c   20.34334562
_cell_angle_alpha   90.00000000
_cell_angle_beta   90.00000000
_cell_angle_gamma   120.00000000
_symmetry_Int_Tables_number   1
_chemical_formula_structural   Li2Ca3F8
_chemical_formula_sum   'Li16 Ca24 F64'
_cell_volume   1603.75333009
_cell_formula_units_Z   8
loop_
 _symmetry_equiv_pos_site_id
 _symmetry_equiv_pos_as_xyz
  1  'x, y, z'
loop_
 _atom_site_type_symbol
 _atom_site_label
 _atom_site_symmetry_multiplicity
 _atom_site_fract_x
 _atom_site_fract_y
 _atom_site_fract_z
 _atom_site_occupancy
  Ca  Ca0  1  0.77175461  0.12780220  0.75867418  1
  Ca  Ca1  1  0.87219780  0.64395241  0.75867418  1
  Ca  Ca2  1  0.35604759  0.22824539  0.75867418  1
  Ca  Ca3  1  0.87219780  0.22824539  0.24132582  1
  Ca  Ca4  1  0.35604759  0.12780220  0.24132582  1
  Ca  Ca5  1  0.77175461  0.64395241  0.24132582  1
  Ca  Ca6  1  0.72650369  0.88809044  0.72363528  1
  Ca  Ca7  1  0.11190956  0.83841325  0.72363528  1
  Ca  Ca8  1  0.16158675  0.27349631  0.72363528  1
  Ca  Ca9  1  0.11190956  0.27349631  0.27636472  1
  Ca  Ca10  1  0.16158675  0.88809044  0.27636472  1
  Ca  Ca11  1  0.72650369  0.83841325  0.27636472  1
  Ca  Ca12  1  0.05764314  0.29625292  0.16266503  1
  Ca  Ca13  1  0.70374708  0.76139022  0.16266503  1
  Ca  Ca14  1  0.23860978  0.94235686  0.16266503  1
  Ca  Ca15  1  0.70374708  0.94235686  0.83733497  1
  Ca  Ca16  1  0.23860978  0.29625292  0.83733497  1
  Ca  Ca17  1  0.05764314  0.76139022  0.83733497  1
  Ca  Ca18  1  0.87425341  0.12574659  0.50000000  1
  Ca  Ca19  1  0.87425341  0.74850681  0.50000000  1
  Ca  Ca20  1  0.25149319  0.12574659  0.50000000  1
  Ca  Ca21  1  0.00000000  0.00000000  0.76450858  1
  Ca  Ca22  1  0.00000000  0.00000000  0.23549142  1
  Ca  Ca23  1  0.66666667  0.33333333  0.50000000  1
  F  F24  1  0.11548871  0.60775633  0.51797799  1
  F  F25  1  -0.60775633  -0.49226761  0.51797799  1
  F  F26  1  0.49226761  -0.11548871  0.51797799  1
  F  F27  1  -0.60775633  -0.11548871  -0.51797799  1
  F  F28  1  0.49226761  0.60775633  -0.51797799  1
  F  F29  1  0.11548871  -0.49226761  -0.51797799  1
  F  F30  1  0.61416478  0.04379505  0.48951878  1
  F  F31  1  0.95620495  0.57036974  0.48951878  1
  F  F32  1  0.42963026  0.38583522  0.48951878  1
  F  F33  1  0.95620495  0.38583522  0.51048122  1
  F  F34  1  0.42963026  0.04379505  0.51048122  1
  F  F35  1  0.61416478  0.57036974  0.51048122  1
  F  F36  1  0.70361905  0.31888699  0.88757914  1
  F  F37  1  0.68111301  0.38473206  0.88757914  1
  F  F38  1  0.61526794  0.29638095  0.88757914  1
  F  F39  1  0.68111301  0.29638095  0.11242086  1
  F  F40  1  0.61526794  0.31888699  0.11242086  1
  F  F41  1  0.70361905  0.38473206  0.11242086  1
  F  F42  1  0.33333333  0.66666667  0.50000000  1
  F  F43  1  0.83662941  0.10716545  0.56254155  1
  F  F44  1  0.89283455  0.72946396  0.56254155  1
  F  F45  1  0.27053604  0.16337059  0.56254155  1
  F  F46  1  0.89283455  0.16337059  0.43745845  1
  F  F47  1  0.27053604  0.10716545  0.43745845  1
  F  F48  1  0.83662941  0.72946396  0.43745845  1
  F  F49  1  0.36203507  0.50699733  0.62598545  1
  F  F50  1  0.49300267  0.85503775  0.62598545  1
  F  F51  1  0.14496225  0.63796493  0.62598545  1
  F  F52  1  0.49300267  0.63796493  0.37401455  1
  F  F53  1  0.14496225  0.50699733  0.37401455  1
  F  F54  1  0.36203507  0.85503775  0.37401455  1
  F  F55  1  0.35299602  0.10957866  0.59045109  1
  F  F56  1  0.89042134  0.24341735  0.59045109  1
  F  F57  1  0.75658265  0.64700398  0.59045109  1
  F  F58  1  0.89042134  0.64700398  0.40954891  1
  F  F59  1  0.75658265  0.10957866  0.40954891  1
  F  F60  1  0.35299602  0.24341735  0.40954891  1
  F  F61  1  0.33333333  0.66666667  0.87038313  1
  F  F62  1  0.33333333  0.66666667  0.12961687  1
  F  F63  1  0.56124436  0.61658819  0.55636227  1
  F  F64  1  0.38341181  0.94465617  0.55636227  1
  F  F65  1  0.05534383  0.43875564  0.55636227  1
  F  F66  1  0.38341181  0.43875564  0.44363773  1
  F  F67  1  0.05534383  0.61658819  0.44363773  1
  F  F68  1  0.56124436  0.94465617  0.44363773  1
  F  F69  1  0.66666667  0.33333333  0.00000000  1
  F  F70  1  0.33333333  0.66666667  0.00000000  1
  F  F71  1  0.00000000  0.00000000  0.44281502  1
  F  F72  1  0.00000000  0.00000000  0.55718498  1
  F  F73  1  0.64636212  0.76955073  0.21609322  1
  F  F74  1  0.23044927  0.87681139  0.21609322  1
  F  F75  1  0.12318861  0.35363788  0.21609322  1
  F  F76  1  0.23044927  0.35363788  0.78390678  1
  F  F77  1  0.12318861  0.76955073  0.78390678  1
  F  F78  1  0.64636212  0.87681139  0.78390678  1
  F  F79  1  0.00000000  0.00000000  0.00000000  1
  F  F80  1  0.12131561  0.39693480  0.92006831  1
  F  F81  1  0.60306520  0.72438081  0.92006831  1
  F  F82  1  0.27561919  0.87868439  0.92006831  1
  F  F83  1  0.60306520  0.87868439  0.07993169  1
  F  F84  1  0.27561919  0.39693480  0.07993169  1
  F  F85  1  0.12131561  0.72438081  0.07993169  1
  F  F86  1  0.66666667  0.33333333  0.58506648  1
  F  F87  1  0.66666667  0.33333333  0.41493352  1
  Li  Li88  1  0.47636327  0.52363673  0.00000000  1
  Li  Li89  1  0.47636327  0.95272654  0.00000000  1
  Li  Li90  1  0.04727346  0.52363673  0.00000000  1
  Li  Li91  1  0.40465138  0.97463773  0.08419061  1
  Li  Li92  1  0.02536227  0.43001365  0.08419061  1
  Li  Li93  1  0.56998635  0.59534862  0.08419061  1
  Li  Li94  1  0.02536227  0.59534862  0.91580939  1
  Li  Li95  1  0.56998635  0.97463773  0.91580939  1
  Li  Li96  1  0.40465138  0.43001365  0.91580939  1
  Li  Li97  1  0.68360157  0.17628209  0.17036622  1
  Li  Li98  1  0.82371791  0.50731948  0.17036622  1
  Li  Li99  1  0.49268052  0.31639843  0.17036622  1
  Li  Li100  1  0.82371791  0.31639843  0.82963378  1
  Li  Li101  1  0.49268052  0.17628209  0.82963378  1
  Li  Li102  1  0.68360157  0.50731948  0.82963378  1
  Li  Li103  1  0.00000000  0.00000000  0.50000000  1
