# generated using pymatgen
data_Li2Ca3F8
_symmetry_space_group_name_H-M   'P 1'
_cell_length_a   7.12296944
_cell_length_b   7.12296944
_cell_length_c   42.57706682
_cell_angle_alpha   90.00000000
_cell_angle_beta   90.00000000
_cell_angle_gamma   120.00000000
_symmetry_Int_Tables_number   1
_chemical_formula_structural   Li2Ca3F8
_chemical_formula_sum   'Li16 Ca24 F64'
_cell_volume   1870.80504894
_cell_formula_units_Z   8
loop_
 _symmetry_equiv_pos_site_id
 _symmetry_equiv_pos_as_xyz
  1  'x, y, z'
loop_
 _atom_site_type_symbol
 _atom_site_label
 _atom_site_symmetry_multiplicity
 _atom_site_fract_x
 _atom_site_fract_y
 _atom_site_fract_z
 _atom_site_occupancy
  Ca  Ca0  1  0.41191196  0.00000000  0.70674552  1
  Ca  Ca1  1  0.00000000  0.41191196  0.70674552  1
  Ca  Ca2  1  0.58808804  0.58808804  0.70674552  1
  Ca  Ca3  1  0.41191196  0.00000000  0.29325448  1
  Ca  Ca4  1  0.00000000  0.41191196  0.29325448  1
  Ca  Ca5  1  0.58808804  0.58808804  0.29325448  1
  Ca  Ca6  1  0.39713552  0.00000000  0.59143122  1
  Ca  Ca7  1  0.00000000  0.39713552  0.59143122  1
  Ca  Ca8  1  0.60286448  0.60286448  0.59143122  1
  Ca  Ca9  1  0.39713552  0.00000000  0.40856878  1
  Ca  Ca10  1  0.00000000  0.39713552  0.40856878  1
  Ca  Ca11  1  0.60286448  0.60286448  0.40856878  1
  Ca  Ca12  1  0.46292246  0.00000000  0.96788097  1
  Ca  Ca13  1  0.00000000  0.46292246  0.96788097  1
  Ca  Ca14  1  0.53707754  0.53707754  0.96788097  1
  Ca  Ca15  1  0.46292246  0.00000000  0.03211903  1
  Ca  Ca16  1  0.00000000  0.46292246  0.03211903  1
  Ca  Ca17  1  0.53707754  0.53707754  0.03211903  1
  Ca  Ca18  1  0.50767562  0.17396964  0.50000000  1
  Ca  Ca19  1  0.82603036  0.33370598  0.50000000  1
  Ca  Ca20  1  0.66629402  0.49232438  0.50000000  1
  Ca  Ca21  1  0.17396964  0.50767562  0.50000000  1
  Ca  Ca22  1  0.33370598  0.82603036  0.50000000  1
  Ca  Ca23  1  0.49232438  0.66629402  0.50000000  1
  F  F24  1  0.38577148  0.21969406  0.10944952  1
  F  F25  1  -0.21969406  0.16607742  0.10944952  1
  F  F26  1  -0.16607742  -0.38577148  0.10944952  1
  F  F27  1  0.38577148  0.21969406  -0.10944952  1
  F  F28  1  -0.21969406  0.16607742  -0.10944952  1
  F  F29  1  -0.16607742  -0.38577148  -0.10944952  1
  F  F30  1  0.21969406  0.38577148  -0.10944952  1
  F  F31  1  0.16607742  -0.21969406  -0.10944952  1
  F  F32  1  -0.38577148  -0.16607742  -0.10944952  1
  F  F33  1  0.21969406  0.38577148  0.10944952  1
  F  F34  1  0.16607742  -0.21969406  0.10944952  1
  F  F35  1  -0.38577148  -0.16607742  0.10944952  1
  F  F36  1  0.73987447  -0.00000000  0.18014010  1
  F  F37  1  0.00000000  0.73987447  0.18014010  1
  F  F38  1  0.26012553  0.26012553  0.18014010  1
  F  F39  1  0.73987447  -0.00000000  0.81985990  1
  F  F40  1  0.00000000  0.73987447  0.81985990  1
  F  F41  1  0.26012553  0.26012553  0.81985990  1
  F  F42  1  0.62691595  0.81758140  0.98911823  1
  F  F43  1  0.18241860  0.80933456  0.98911823  1
  F  F44  1  0.19066544  0.37308405  0.98911823  1
  F  F45  1  0.62691595  0.81758140  0.01088177  1
  F  F46  1  0.18241860  0.80933456  0.01088177  1
  F  F47  1  0.19066544  0.37308405  0.01088177  1
  F  F48  1  0.81758140  0.62691595  0.01088177  1
  F  F49  1  0.80933456  0.18241860  0.01088177  1
  F  F50  1  0.37308405  0.19066544  0.01088177  1
  F  F51  1  0.81758140  0.62691595  0.98911823  1
  F  F52  1  0.80933456  0.18241860  0.98911823  1
  F  F53  1  0.37308405  0.19066544  0.98911823  1
  F  F54  1  0.17084553  0.55770551  0.92995193  1
  F  F55  1  0.44229449  0.61314002  0.92995193  1
  F  F56  1  0.38685998  0.82915447  0.92995193  1
  F  F57  1  0.17084553  0.55770551  0.07004807  1
  F  F58  1  0.44229449  0.61314002  0.07004807  1
  F  F59  1  0.38685998  0.82915447  0.07004807  1
  F  F60  1  0.55770551  0.17084553  0.07004807  1
  F  F61  1  0.61314002  0.44229449  0.07004807  1
  F  F62  1  0.82915447  0.38685998  0.07004807  1
  F  F63  1  0.55770551  0.17084553  0.92995193  1
  F  F64  1  0.61314002  0.44229449  0.92995193  1
  F  F65  1  0.82915447  0.38685998  0.92995193  1
  F  F66  1  0.88235197  0.54985834  0.47590619  1
  F  F67  1  0.45014166  0.33249363  0.47590619  1
  F  F68  1  0.66750637  0.11764803  0.47590619  1
  F  F69  1  0.88235197  0.54985834  0.52409381  1
  F  F70  1  0.45014166  0.33249363  0.52409381  1
  F  F71  1  0.66750637  0.11764803  0.52409381  1
  F  F72  1  0.54985834  0.88235197  0.52409381  1
  F  F73  1  0.33249363  0.45014166  0.52409381  1
  F  F74  1  0.11764803  0.66750637  0.52409381  1
  F  F75  1  0.54985834  0.88235197  0.47590619  1
  F  F76  1  0.33249363  0.45014166  0.47590619  1
  F  F77  1  0.11764803  0.66750637  0.47590619  1
  F  F78  1  0.27924610  0.00000000  0.74345300  1
  F  F79  1  0.00000000  0.27924610  0.74345300  1
  F  F80  1  0.72075390  0.72075390  0.74345300  1
  F  F81  1  0.27924610  0.00000000  0.25654700  1
  F  F82  1  0.00000000  0.27924610  0.25654700  1
  F  F83  1  0.72075390  0.72075390  0.25654700  1
  F  F84  1  0.33333333  0.66666667  0.62806827  1
  F  F85  1  0.33333333  0.66666667  0.37193173  1
  F  F86  1  0.66666667  0.33333333  0.37193173  1
  F  F87  1  0.66666667  0.33333333  0.62806827  1
  Li  Li88  1  0.42085075  -0.00000000  0.15701202  1
  Li  Li89  1  0.00000000  0.42085075  0.15701202  1
  Li  Li90  1  0.57914925  0.57914925  0.15701202  1
  Li  Li91  1  0.42085075  -0.00000000  0.84298798  1
  Li  Li92  1  0.00000000  0.42085075  0.84298798  1
  Li  Li93  1  0.57914925  0.57914925  0.84298798  1
  Li  Li94  1  0.00000000  0.00000000  0.00000000  1
  Li  Li95  1  0.33333333  0.66666667  0.87627896  1
  Li  Li96  1  0.33333333  0.66666667  0.12372104  1
  Li  Li97  1  0.66666667  0.33333333  0.12372104  1
  Li  Li98  1  0.66666667  0.33333333  0.87627896  1
  Li  Li99  1  0.33333333  0.66666667  0.08072514  1
  Li  Li100  1  0.33333333  0.66666667  0.91927486  1
  Li  Li101  1  0.66666667  0.33333333  0.91927486  1
  Li  Li102  1  0.66666667  0.33333333  0.08072514  1
  Li  Li103  1  0.00000000  0.00000000  0.50000000  1
