# generated using pymatgen
data_LiF
_symmetry_space_group_name_H-M   'P 1'
_cell_length_a   6.98376839
_cell_length_b   9.38503512
_cell_length_c   4.33797261
_cell_angle_alpha   90.00000000
_cell_angle_beta   90.00000000
_cell_angle_gamma   90.00000000
_symmetry_Int_Tables_number   1
_chemical_formula_structural   LiF
_chemical_formula_sum   'Li10 F10'
_cell_volume   284.32335535
_cell_formula_units_Z   10
loop_
 _symmetry_equiv_pos_site_id
 _symmetry_equiv_pos_as_xyz
  1  'x, y, z'
loop_
 _atom_site_type_symbol
 _atom_site_label
 _atom_site_symmetry_multiplicity
 _atom_site_fract_x
 _atom_site_fract_y
 _atom_site_fract_z
 _atom_site_occupancy
  F  F0  1  0.10510986  0.81152596  0.39632035  1
  F  F1  1  -0.10510986  -0.81152596  0.39632035  1
  F  F2  1  0.39489014  1.31152596  0.10367965  1
  F  F3  1  0.60510986  -0.31152596  0.10367965  1
  F  F4  1  -0.10510986  -0.81152596  -0.39632035  1
  F  F5  1  0.10510986  0.81152596  -0.39632035  1
  F  F6  1  0.60510986  -0.31152596  0.89632035  1
  F  F7  1  0.39489014  1.31152596  0.89632035  1
  F  F8  1  0.00000000  0.50000000  0.00000000  1
  F  F9  1  0.50000000  -0.00000000  0.50000000  1
  Li  Li10  1  0.00000000  0.00000000  0.50000000  1
  Li  Li11  1  0.50000000  0.50000000  0.00000000  1
  Li  Li12  1  0.00000000  0.00000000  0.00000000  1
  Li  Li13  1  0.50000000  0.50000000  0.50000000  1
  Li  Li14  1  0.00000000  0.50000000  0.50000000  1
  Li  Li15  1  0.50000000  -0.00000000  -0.00000000  1
  Li  Li16  1  0.28548023  0.25014785  0.00000000  1
  Li  Li17  1  0.71451977  0.74985215  0.00000000  1
  Li  Li18  1  0.21451977  0.75014785  0.50000000  1
  Li  Li19  1  0.78548023  0.24985215  0.50000000  1
