# generated using pymatgen
data_LiY2MoP3Se
_symmetry_space_group_name_H-M   'P 1'
_cell_length_a   5.20116984
_cell_length_b   5.41816824
_cell_length_c   7.11429697
_cell_angle_alpha   94.27868578
_cell_angle_beta   98.62941210
_cell_angle_gamma   106.10575401
_symmetry_Int_Tables_number   1
_chemical_formula_structural   LiY2MoP3Se
_chemical_formula_sum   'Li1 Y2 Mo1 P3 Se1'
_cell_volume   189.00619908
_cell_formula_units_Z   1
loop_
 _symmetry_equiv_pos_site_id
 _symmetry_equiv_pos_as_xyz
  1  'x, y, z'
loop_
 _atom_site_type_symbol
 _atom_site_label
 _atom_site_symmetry_multiplicity
 _atom_site_fract_x
 _atom_site_fract_y
 _atom_site_fract_z
 _atom_site_occupancy
  Se  Se0  1  0.00000000  0.00000000  0.00000000  1
  P  P1  1  0.50000000  0.50000000  0.50000000  1
  P  P2  1  0.50000000  0.50000000  0.00000000  1
  P  P3  1  0.50000000  0.00000000  0.50000000  1
  Mo  Mo4  1  0.00000000  0.50000000  0.50000000  1
  Li  Li5  1  0.54223511  0.57773442  0.43110727  1
  Y  Y6  1  0.05631449  0.70773110  0.71845535  1
  Y  Y7  1  0.68437445  0.31887055  0.29661214  1
