# generated using pymatgen
data_LiF
_symmetry_space_group_name_H-M   'P 1'
_cell_length_a   11.59128589
_cell_length_b   11.59128589
_cell_length_c   10.40166749
_cell_angle_alpha   90.00000000
_cell_angle_beta   90.00000000
_cell_angle_gamma   90.00000000
_symmetry_Int_Tables_number   1
_chemical_formula_structural   LiF
_chemical_formula_sum   'Li43 F43'
_cell_volume   1397.54628813
_cell_formula_units_Z   43
loop_
 _symmetry_equiv_pos_site_id
 _symmetry_equiv_pos_as_xyz
  1  'x, y, z'
loop_
 _atom_site_type_symbol
 _atom_site_label
 _atom_site_symmetry_multiplicity
 _atom_site_fract_x
 _atom_site_fract_y
 _atom_site_fract_z
 _atom_site_occupancy
  F  F0  1  0.00000000  0.50000000  0.89185188  1
  F  F1  1  0.50000000  0.00000000  0.89185188  1
  F  F2  1  0.00000000  0.50000000  0.10814812  1
  F  F3  1  0.50000000  0.00000000  0.10814812  1
  F  F4  1  0.92222895  0.92222895  0.53181552  1
  F  F5  1  0.07777105  0.07777105  0.53181552  1
  F  F6  1  0.07777105  0.92222895  0.53181552  1
  F  F7  1  0.92222895  0.07777105  0.53181552  1
  F  F8  1  0.07777105  0.92222895  0.46818448  1
  F  F9  1  0.92222895  0.07777105  0.46818448  1
  F  F10  1  0.92222895  0.92222895  0.46818448  1
  F  F11  1  0.07777105  0.07777105  0.46818448  1
  F  F12  1  0.84544753  0.39296533  0.85302785  1
  F  F13  1  0.15455247  0.60703467  0.85302785  1
  F  F14  1  0.60703467  0.84544753  0.85302785  1
  F  F15  1  0.39296533  0.15455247  0.85302785  1
  F  F16  1  0.15455247  0.39296533  0.14697215  1
  F  F17  1  0.84544753  0.60703467  0.14697215  1
  F  F18  1  0.39296533  0.84544753  0.14697215  1
  F  F19  1  0.60703467  0.15455247  0.14697215  1
  F  F20  1  0.15455247  0.60703467  0.14697215  1
  F  F21  1  0.84544753  0.39296533  0.14697215  1
  F  F22  1  0.39296533  0.15455247  0.14697215  1
  F  F23  1  0.60703467  0.84544753  0.14697215  1
  F  F24  1  0.84544753  0.60703467  0.85302785  1
  F  F25  1  0.15455247  0.39296533  0.85302785  1
  F  F26  1  0.60703467  0.15455247  0.85302785  1
  F  F27  1  0.39296533  0.84544753  0.85302785  1
  F  F28  1  0.87268697  0.34200697  0.00000000  1
  F  F29  1  0.12731303  0.65799303  0.00000000  1
  F  F30  1  0.65799303  0.87268697  0.00000000  1
  F  F31  1  0.34200697  0.12731303  0.00000000  1
  F  F32  1  0.12731303  0.34200697  0.00000000  1
  F  F33  1  0.87268697  0.65799303  0.00000000  1
  F  F34  1  0.34200697  0.87268697  0.00000000  1
  F  F35  1  0.65799303  0.12731303  0.00000000  1
  F  F36  1  0.00000000  0.00000000  0.00000000  1
  F  F37  1  0.35102626  0.50000000  0.50000000  1
  F  F38  1  0.64897374  0.50000000  0.50000000  1
  F  F39  1  0.50000000  0.35102626  0.50000000  1
  F  F40  1  0.50000000  0.64897374  0.50000000  1
  F  F41  1  0.50000000  0.50000000  0.96257274  1
  F  F42  1  0.50000000  0.50000000  0.03742726  1
  Li  Li43  1  0.78469029  0.43930768  0.19710269  1
  Li  Li44  1  -0.78469029  -0.43930768  0.19710269  1
  Li  Li45  1  -0.43930768  0.78469029  0.19710269  1
  Li  Li46  1  0.43930768  -0.78469029  0.19710269  1
  Li  Li47  1  -0.78469029  0.43930768  -0.19710269  1
  Li  Li48  1  0.78469029  -0.43930768  -0.19710269  1
  Li  Li49  1  0.43930768  0.78469029  -0.19710269  1
  Li  Li50  1  -0.43930768  -0.78469029  -0.19710269  1
  Li  Li51  1  -0.78469029  -0.43930768  -0.19710269  1
  Li  Li52  1  0.78469029  0.43930768  -0.19710269  1
  Li  Li53  1  0.43930768  -0.78469029  -0.19710269  1
  Li  Li54  1  -0.43930768  0.78469029  -0.19710269  1
  Li  Li55  1  0.78469029  -0.43930768  0.19710269  1
  Li  Li56  1  -0.78469029  0.43930768  0.19710269  1
  Li  Li57  1  -0.43930768  -0.78469029  0.19710269  1
  Li  Li58  1  0.43930768  0.78469029  0.19710269  1
  Li  Li59  1  0.16616091  0.16616091  0.91029226  1
  Li  Li60  1  0.83383909  0.83383909  0.91029226  1
  Li  Li61  1  0.83383909  0.16616091  0.91029226  1
  Li  Li62  1  0.16616091  0.83383909  0.91029226  1
  Li  Li63  1  0.83383909  0.16616091  0.08970774  1
  Li  Li64  1  0.16616091  0.83383909  0.08970774  1
  Li  Li65  1  0.16616091  0.16616091  0.08970774  1
  Li  Li66  1  0.83383909  0.83383909  0.08970774  1
  Li  Li67  1  0.00000000  0.50000000  0.50000000  1
  Li  Li68  1  0.50000000  0.00000000  0.50000000  1
  Li  Li69  1  0.00000000  0.00000000  0.76706811  1
  Li  Li70  1  0.00000000  0.00000000  0.23293189  1
  Li  Li71  1  0.35891648  0.00000000  0.14933462  1
  Li  Li72  1  0.64108352  0.00000000  0.14933462  1
  Li  Li73  1  0.00000000  0.35891648  0.14933462  1
  Li  Li74  1  0.00000000  0.64108352  0.14933462  1
  Li  Li75  1  0.64108352  0.00000000  0.85066538  1
  Li  Li76  1  0.35891648  0.00000000  0.85066538  1
  Li  Li77  1  0.00000000  0.35891648  0.85066538  1
  Li  Li78  1  0.00000000  0.64108352  0.85066538  1
  Li  Li79  1  0.00000000  0.50000000  0.00000000  1
  Li  Li80  1  0.50000000  0.00000000  0.00000000  1
  Li  Li81  1  0.50000000  0.50000000  0.50000000  1
  Li  Li82  1  0.29307648  0.00000000  0.00000000  1
  Li  Li83  1  0.70692352  0.00000000  0.00000000  1
  Li  Li84  1  0.00000000  0.29307648  0.00000000  1
  Li  Li85  1  0.00000000  0.70692352  0.00000000  1
