# generated using pymatgen
data_Li4TeF2
_symmetry_space_group_name_H-M   'P 1'
_cell_length_a   13.91182786
_cell_length_b   13.91182786
_cell_length_c   13.91182786
_cell_angle_alpha   90.00000000
_cell_angle_beta   90.00000000
_cell_angle_gamma   90.00000000
_symmetry_Int_Tables_number   1
_chemical_formula_structural   Li4TeF2
_chemical_formula_sum   'Li96 Te24 F48'
_cell_volume   2692.48061940
_cell_formula_units_Z   24
loop_
 _symmetry_equiv_pos_site_id
 _symmetry_equiv_pos_as_xyz
  1  'x, y, z'
loop_
 _atom_site_type_symbol
 _atom_site_label
 _atom_site_symmetry_multiplicity
 _atom_site_fract_x
 _atom_site_fract_y
 _atom_site_fract_z
 _atom_site_occupancy
  F  F0  1  0.94516328  0.86617372  0.25303332  1
  F  F1  1  -0.44516328  -0.86617372  0.75303332  1
  F  F2  1  -0.94516328  1.36617372  0.24696668  1
  F  F3  1  1.44516328  -0.36617372  -0.25303332  1
  F  F4  1  0.25303332  0.94516328  0.86617372  1
  F  F5  1  0.75303332  -0.44516328  -0.86617372  1
  F  F6  1  0.24696668  -0.94516328  1.36617372  1
  F  F7  1  -0.25303332  1.44516328  -0.36617372  1
  F  F8  1  0.86617372  0.25303332  0.94516328  1
  F  F9  1  -0.86617372  0.75303332  -0.44516328  1
  F  F10  1  1.36617372  0.24696668  -0.94516328  1
  F  F11  1  -0.36617372  -0.25303332  1.44516328  1
  F  F12  1  1.61617372  1.19516328  -0.00303332  1
  F  F13  1  -0.11617372  -0.19516328  0.49696668  1
  F  F14  1  1.11617372  -0.69516328  1.00303332  1
  F  F15  1  -0.61617372  1.69516328  0.50303332  1
  F  F16  1  1.69516328  0.50303332  -0.61617372  1
  F  F17  1  -0.69516328  1.00303332  1.11617372  1
  F  F18  1  -0.19516328  0.49696668  -0.11617372  1
  F  F19  1  1.19516328  -0.00303332  1.61617372  1
  F  F20  1  1.00303332  1.11617372  -0.69516328  1
  F  F21  1  0.50303332  -0.61617372  1.69516328  1
  F  F22  1  -0.00303332  1.61617372  1.19516328  1
  F  F23  1  0.49696668  -0.11617372  -0.19516328  1
  F  F24  1  1.44516328  1.36617372  0.75303332  1
  F  F25  1  0.05483672  -0.36617372  1.25303332  1
  F  F26  1  -0.44516328  1.86617372  0.74696668  1
  F  F27  1  1.94516328  0.13382628  0.24696668  1
  F  F28  1  0.75303332  1.44516328  1.36617372  1
  F  F29  1  1.25303332  0.05483672  -0.36617372  1
  F  F30  1  0.74696668  -0.44516328  1.86617372  1
  F  F31  1  0.24696668  1.94516328  0.13382628  1
  F  F32  1  1.36617372  0.75303332  1.44516328  1
  F  F33  1  -0.36617372  1.25303332  0.05483672  1
  F  F34  1  1.86617372  0.74696668  -0.44516328  1
  F  F35  1  0.13382628  0.24696668  1.94516328  1
  F  F36  1  2.11617372  1.69516328  0.49696668  1
  F  F37  1  0.38382628  0.30483672  0.99696668  1
  F  F38  1  1.61617372  -0.19516328  1.50303332  1
  F  F39  1  -0.11617372  2.19516328  1.00303332  1
  F  F40  1  2.19516328  1.00303332  -0.11617372  1
  F  F41  1  -0.19516328  1.50303332  1.61617372  1
  F  F42  1  0.30483672  0.99696668  0.38382628  1
  F  F43  1  1.69516328  0.49696668  2.11617372  1
  F  F44  1  1.50303332  1.61617372  -0.19516328  1
  F  F45  1  1.00303332  -0.11617372  2.19516328  1
  F  F46  1  0.49696668  2.11617372  1.69516328  1
  F  F47  1  0.99696668  0.38382628  0.30483672  1
  Li  Li48  1  0.12500000  0.77830835  0.02830835  1
  Li  Li49  1  0.37500000  0.22169165  0.52830835  1
  Li  Li50  1  0.87500000  0.27830835  0.47169165  1
  Li  Li51  1  0.62500000  0.72169165  0.97169165  1
  Li  Li52  1  0.02830835  0.12500000  0.77830835  1
  Li  Li53  1  0.52830835  0.37500000  0.22169165  1
  Li  Li54  1  0.47169165  0.87500000  0.27830835  1
  Li  Li55  1  0.97169165  0.62500000  0.72169165  1
  Li  Li56  1  0.77830835  0.02830835  0.12500000  1
  Li  Li57  1  0.22169165  0.52830835  0.37500000  1
  Li  Li58  1  0.27830835  0.47169165  0.87500000  1
  Li  Li59  1  0.72169165  0.97169165  0.62500000  1
  Li  Li60  1  0.62500000  0.27830835  0.52830835  1
  Li  Li61  1  0.87500000  0.72169165  0.02830835  1
  Li  Li62  1  0.37500000  0.77830835  0.97169165  1
  Li  Li63  1  0.12500000  0.22169165  0.47169165  1
  Li  Li64  1  0.52830835  0.62500000  0.27830835  1
  Li  Li65  1  0.02830835  0.87500000  0.72169165  1
  Li  Li66  1  0.97169165  0.37500000  0.77830835  1
  Li  Li67  1  0.47169165  0.12500000  0.22169165  1
  Li  Li68  1  0.27830835  0.52830835  0.62500000  1
  Li  Li69  1  0.72169165  0.02830835  0.87500000  1
  Li  Li70  1  0.77830835  0.97169165  0.37500000  1
  Li  Li71  1  0.22169165  0.47169165  0.12500000  1
  Li  Li72  1  0.87500000  0.87500000  0.87500000  1
  Li  Li73  1  0.62500000  0.12500000  0.37500000  1
  Li  Li74  1  0.12500000  0.37500000  0.62500000  1
  Li  Li75  1  0.37500000  0.62500000  0.12500000  1
  Li  Li76  1  0.37500000  0.37500000  0.37500000  1
  Li  Li77  1  0.12500000  0.62500000  0.87500000  1
  Li  Li78  1  0.62500000  0.87500000  0.12500000  1
  Li  Li79  1  0.87500000  0.12500000  0.62500000  1
  Li  Li80  1  0.51355456  0.64858605  0.43104144  1
  Li  Li81  1  0.98644544  0.35141395  0.93104144  1
  Li  Li82  1  0.48644544  0.14858605  0.06895856  1
  Li  Li83  1  0.01355456  0.85141395  0.56895856  1
  Li  Li84  1  0.43104144  0.51355456  0.64858605  1
  Li  Li85  1  0.93104144  0.98644544  0.35141395  1
  Li  Li86  1  0.06895856  0.48644544  0.14858605  1
  Li  Li87  1  0.56895856  0.01355456  0.85141395  1
  Li  Li88  1  0.64858605  0.43104144  0.51355456  1
  Li  Li89  1  0.35141395  0.93104144  0.98644544  1
  Li  Li90  1  0.14858605  0.06895856  0.48644544  1
  Li  Li91  1  0.85141395  0.56895856  0.01355456  1
  Li  Li92  1  0.39858605  0.76355456  0.81895856  1
  Li  Li93  1  0.10141395  0.23644544  0.31895856  1
  Li  Li94  1  0.89858605  0.73644544  0.18104144  1
  Li  Li95  1  0.60141395  0.26355456  0.68104144  1
  Li  Li96  1  0.26355456  0.68104144  0.60141395  1
  Li  Li97  1  0.73644544  0.18104144  0.89858605  1
  Li  Li98  1  0.23644544  0.31895856  0.10141395  1
  Li  Li99  1  0.76355456  0.81895856  0.39858605  1
  Li  Li100  1  0.18104144  0.89858605  0.73644544  1
  Li  Li101  1  0.68104144  0.60141395  0.26355456  1
  Li  Li102  1  0.81895856  0.39858605  0.76355456  1
  Li  Li103  1  0.31895856  0.10141395  0.23644544  1
  Li  Li104  1  0.01355456  0.14858605  0.93104144  1
  Li  Li105  1  0.48644544  0.85141395  0.43104144  1
  Li  Li106  1  0.98644544  0.64858605  0.56895856  1
  Li  Li107  1  0.51355456  0.35141395  0.06895856  1
  Li  Li108  1  0.93104144  0.01355456  0.14858605  1
  Li  Li109  1  0.43104144  0.48644544  0.85141395  1
  Li  Li110  1  0.56895856  0.98644544  0.64858605  1
  Li  Li111  1  0.06895856  0.51355456  0.35141395  1
  Li  Li112  1  0.14858605  0.93104144  0.01355456  1
  Li  Li113  1  0.85141395  0.43104144  0.48644544  1
  Li  Li114  1  0.64858605  0.56895856  0.98644544  1
  Li  Li115  1  0.35141395  0.06895856  0.51355456  1
  Li  Li116  1  0.89858605  0.26355456  0.31895856  1
  Li  Li117  1  0.60141395  0.73644544  0.81895856  1
  Li  Li118  1  0.39858605  0.23644544  0.68104144  1
  Li  Li119  1  0.10141395  0.76355456  0.18104144  1
  Li  Li120  1  0.76355456  0.18104144  0.10141395  1
  Li  Li121  1  0.23644544  0.68104144  0.39858605  1
  Li  Li122  1  0.73644544  0.81895856  0.60141395  1
  Li  Li123  1  0.26355456  0.31895856  0.89858605  1
  Li  Li124  1  0.68104144  0.39858605  0.23644544  1
  Li  Li125  1  0.18104144  0.10141395  0.76355456  1
  Li  Li126  1  0.31895856  0.89858605  0.26355456  1
  Li  Li127  1  0.81895856  0.60141395  0.73644544  1
  Li  Li128  1  0.29417481  0.29417481  0.29417481  1
  Li  Li129  1  0.20582519  0.70582519  0.79417481  1
  Li  Li130  1  0.70582519  0.79417481  0.20582519  1
  Li  Li131  1  0.79417481  0.20582519  0.70582519  1
  Li  Li132  1  0.04417481  0.54417481  0.95582519  1
  Li  Li133  1  0.45582519  0.45582519  0.45582519  1
  Li  Li134  1  0.54417481  0.95582519  0.04417481  1
  Li  Li135  1  0.95582519  0.04417481  0.54417481  1
  Li  Li136  1  0.79417481  0.79417481  0.79417481  1
  Li  Li137  1  0.70582519  0.20582519  0.29417481  1
  Li  Li138  1  0.20582519  0.29417481  0.70582519  1
  Li  Li139  1  0.29417481  0.70582519  0.20582519  1
  Li  Li140  1  0.54417481  0.04417481  0.45582519  1
  Li  Li141  1  0.95582519  0.95582519  0.95582519  1
  Li  Li142  1  0.04417481  0.45582519  0.54417481  1
  Li  Li143  1  0.45582519  0.54417481  0.04417481  1
  Te  Te144  1  0.12500000  0.00000000  0.25000000  1
  Te  Te145  1  0.37500000  0.00000000  0.75000000  1
  Te  Te146  1  0.25000000  0.12500000  0.00000000  1
  Te  Te147  1  0.75000000  0.37500000  0.00000000  1
  Te  Te148  1  0.00000000  0.25000000  0.12500000  1
  Te  Te149  1  0.00000000  0.75000000  0.37500000  1
  Te  Te150  1  0.62500000  0.50000000  0.75000000  1
  Te  Te151  1  0.87500000  0.50000000  0.25000000  1
  Te  Te152  1  0.75000000  0.62500000  0.50000000  1
  Te  Te153  1  0.25000000  0.87500000  0.50000000  1
  Te  Te154  1  0.50000000  0.75000000  0.62500000  1
  Te  Te155  1  0.50000000  0.25000000  0.87500000  1
  Te  Te156  1  0.62500000  -0.00000000  0.25000000  1
  Te  Te157  1  0.87500000  0.00000000  0.75000000  1
  Te  Te158  1  0.25000000  0.62500000  -0.00000000  1
  Te  Te159  1  0.75000000  0.87500000  0.00000000  1
  Te  Te160  1  0.00000000  0.25000000  0.62500000  1
  Te  Te161  1  0.00000000  0.75000000  0.87500000  1
  Te  Te162  1  0.12500000  0.50000000  0.75000000  1
  Te  Te163  1  0.37500000  0.50000000  0.25000000  1
  Te  Te164  1  0.75000000  0.12500000  0.50000000  1
  Te  Te165  1  0.25000000  0.37500000  0.50000000  1
  Te  Te166  1  0.50000000  0.75000000  0.12500000  1
  Te  Te167  1  0.50000000  0.25000000  0.37500000  1
