# generated using pymatgen
data_LiF
_symmetry_space_group_name_H-M   'P 1'
_cell_length_a   8.38628114
_cell_length_b   8.38628114
_cell_length_c   12.25486478
_cell_angle_alpha   90.00000000
_cell_angle_beta   90.00000000
_cell_angle_gamma   90.00000000
_symmetry_Int_Tables_number   1
_chemical_formula_structural   LiF
_chemical_formula_sum   'Li25 F25'
_cell_volume   861.88110243
_cell_formula_units_Z   25
loop_
 _symmetry_equiv_pos_site_id
 _symmetry_equiv_pos_as_xyz
  1  'x, y, z'
loop_
 _atom_site_type_symbol
 _atom_site_label
 _atom_site_symmetry_multiplicity
 _atom_site_fract_x
 _atom_site_fract_y
 _atom_site_fract_z
 _atom_site_occupancy
  F  F0  1  0.92751280  0.92751280  0.81477331  1
  F  F1  1  0.07248720  0.07248720  0.81477331  1
  F  F2  1  0.07248720  0.92751280  0.81477331  1
  F  F3  1  0.92751280  0.07248720  0.81477331  1
  F  F4  1  0.07248720  0.92751280  0.18522669  1
  F  F5  1  0.92751280  0.07248720  0.18522669  1
  F  F6  1  0.92751280  0.92751280  0.18522669  1
  F  F7  1  0.07248720  0.07248720  0.18522669  1
  F  F8  1  0.19450156  0.50000000  0.96132694  1
  F  F9  1  0.80549844  0.50000000  0.96132694  1
  F  F10  1  0.50000000  0.19450156  0.96132694  1
  F  F11  1  0.50000000  0.80549844  0.96132694  1
  F  F12  1  0.80549844  0.50000000  0.03867306  1
  F  F13  1  0.19450156  0.50000000  0.03867306  1
  F  F14  1  0.50000000  0.19450156  0.03867306  1
  F  F15  1  0.50000000  0.80549844  0.03867306  1
  F  F16  1  0.50000000  0.50000000  0.12776075  1
  F  F17  1  0.50000000  0.50000000  0.87223925  1
  F  F18  1  0.00000000  0.50000000  0.50000000  1
  F  F19  1  0.50000000  0.00000000  0.50000000  1
  F  F20  1  0.00000000  0.50000000  0.00000000  1
  F  F21  1  0.50000000  0.00000000  0.00000000  1
  F  F22  1  0.50000000  0.50000000  0.63367353  1
  F  F23  1  0.50000000  0.50000000  0.36632647  1
  F  F24  1  0.50000000  0.50000000  0.50000000  1
  Li  Li25  1  0.00000000  0.00000000  0.00000000  1
  Li  Li26  1  0.86865443  0.86865443  0.00000000  1
  Li  Li27  1  0.13134557  0.13134557  0.00000000  1
  Li  Li28  1  0.13134557  0.86865443  0.00000000  1
  Li  Li29  1  0.86865443  0.13134557  -0.00000000  1
  Li  Li30  1  0.16551334  0.50000000  0.24575708  1
  Li  Li31  1  -0.16551334  0.50000000  0.24575708  1
  Li  Li32  1  0.50000000  0.16551334  0.24575708  1
  Li  Li33  1  0.50000000  -0.16551334  0.24575708  1
  Li  Li34  1  -0.16551334  0.50000000  -0.24575708  1
  Li  Li35  1  0.16551334  0.50000000  -0.24575708  1
  Li  Li36  1  0.50000000  0.16551334  -0.24575708  1
  Li  Li37  1  0.50000000  -0.16551334  -0.24575708  1
  Li  Li38  1  0.80809423  0.80809423  0.50000000  1
  Li  Li39  1  0.19190577  0.19190577  0.50000000  1
  Li  Li40  1  0.19190577  0.80809423  0.50000000  1
  Li  Li41  1  0.80809423  0.19190577  0.50000000  1
  Li  Li42  1  0.33601952  0.00000000  0.42623458  1
  Li  Li43  1  0.66398048  0.00000000  0.42623458  1
  Li  Li44  1  0.00000000  0.33601952  0.42623458  1
  Li  Li45  1  0.00000000  0.66398048  0.42623458  1
  Li  Li46  1  0.66398048  0.00000000  0.57376542  1
  Li  Li47  1  0.33601952  0.00000000  0.57376542  1
  Li  Li48  1  0.00000000  0.33601952  0.57376542  1
  Li  Li49  1  0.00000000  0.66398048  0.57376542  1
