# generated using pymatgen
data_LiY2(As2P)2
_symmetry_space_group_name_H-M   'P 1'
_cell_length_a   5.21504445
_cell_length_b   5.33762575
_cell_length_c   6.92629991
_cell_angle_alpha   94.21737334
_cell_angle_beta   98.58121006
_cell_angle_gamma   105.99329646
_symmetry_Int_Tables_number   1
_chemical_formula_structural   LiY2(As2P)2
_chemical_formula_sum   'Li1 Y2 As4 P2'
_cell_volume   181.92483693
_cell_formula_units_Z   1
loop_
 _symmetry_equiv_pos_site_id
 _symmetry_equiv_pos_as_xyz
  1  'x, y, z'
loop_
 _atom_site_type_symbol
 _atom_site_label
 _atom_site_symmetry_multiplicity
 _atom_site_fract_x
 _atom_site_fract_y
 _atom_site_fract_z
 _atom_site_occupancy
  Y  Y0  1  0.12500000  0.00000000  0.25000000  1
  Y  Y1  1  0.00000000  0.00000000  0.00000000  1
  P  P2  1  0.37500000  0.00000000  0.25000000  1
  P  P3  1  0.25000000  0.25000000  0.25000000  1
  As  As4  1  0.00000000  0.25000000  0.12500000  1
  As  As5  1  0.65122050  0.72575117  0.95597833  1
  As  As6  1  0.63814447  0.23719428  0.73928088  1
  As  As7  1  0.39914701  0.32433841  0.80207393  1
  Li  Li8  1  0.76138044  0.50620281  0.28536097  1
