# generated using pymatgen
data_LiF
_symmetry_space_group_name_H-M   'P 1'
_cell_length_a   11.28062527
_cell_length_b   11.28062527
_cell_length_c   14.64098768
_cell_angle_alpha   90.00000000
_cell_angle_beta   90.00000000
_cell_angle_gamma   90.00000000
_symmetry_Int_Tables_number   1
_chemical_formula_structural   LiF
_chemical_formula_sum   'Li64 F64'
_cell_volume   1863.10237907
_cell_formula_units_Z   64
loop_
 _symmetry_equiv_pos_site_id
 _symmetry_equiv_pos_as_xyz
  1  'x, y, z'
loop_
 _atom_site_type_symbol
 _atom_site_label
 _atom_site_symmetry_multiplicity
 _atom_site_fract_x
 _atom_site_fract_y
 _atom_site_fract_z
 _atom_site_occupancy
  F  F0  1  0.02247930  0.34783823  0.19694823  1
  F  F1  1  0.47752070  0.65216177  0.69694823  1
  F  F2  1  0.90216177  0.77247930  0.44694823  1
  F  F3  1  0.59783823  0.22752070  0.94694823  1
  F  F4  1  0.47752070  0.34783823  0.80305177  1
  F  F5  1  0.02247930  0.65216177  0.30305177  1
  F  F6  1  0.59783823  0.77247930  0.55305177  1
  F  F7  1  0.90216177  0.22752070  0.05305177  1
  F  F8  1  0.97752070  0.65216177  0.80305177  1
  F  F9  1  0.52247930  0.34783823  0.30305177  1
  F  F10  1  0.09783823  0.22752070  0.55305177  1
  F  F11  1  0.40216177  0.77247930  0.05305177  1
  F  F12  1  0.52247930  0.65216177  0.19694823  1
  F  F13  1  0.97752070  0.34783823  0.69694823  1
  F  F14  1  0.40216177  0.22752070  0.44694823  1
  F  F15  1  0.09783823  0.77247930  0.94694823  1
  F  F16  1  0.52247930  0.84783823  0.69694823  1
  F  F17  1  0.97752070  0.15216177  0.19694823  1
  F  F18  1  0.40216177  0.27247930  0.94694823  1
  F  F19  1  0.09783823  0.72752070  0.44694823  1
  F  F20  1  0.97752070  0.84783823  0.30305177  1
  F  F21  1  0.52247930  0.15216177  0.80305177  1
  F  F22  1  0.09783823  0.27247930  0.05305177  1
  F  F23  1  0.40216177  0.72752070  0.55305177  1
  F  F24  1  0.47752070  0.15216177  0.30305177  1
  F  F25  1  0.02247930  0.84783823  0.80305177  1
  F  F26  1  0.59783823  0.72752070  0.05305177  1
  F  F27  1  0.90216177  0.27247930  0.55305177  1
  F  F28  1  0.02247930  0.15216177  0.69694823  1
  F  F29  1  0.47752070  0.84783823  0.19694823  1
  F  F30  1  0.90216177  0.72752070  0.94694823  1
  F  F31  1  0.59783823  0.27247930  0.44694823  1
  F  F32  1  0.32911194  0.15188685  0.39486255  1
  F  F33  1  0.17088806  0.84811315  0.89486255  1
  F  F34  1  0.09811315  0.07911194  0.64486255  1
  F  F35  1  0.40188685  0.92088806  0.14486255  1
  F  F36  1  0.17088806  0.15188685  0.60513745  1
  F  F37  1  0.32911194  0.84811315  0.10513745  1
  F  F38  1  0.40188685  0.07911194  0.35513745  1
  F  F39  1  0.09811315  0.92088806  0.85513745  1
  F  F40  1  0.67088806  0.84811315  0.60513745  1
  F  F41  1  0.82911194  0.15188685  0.10513745  1
  F  F42  1  0.90188685  0.92088806  0.35513745  1
  F  F43  1  0.59811315  0.07911194  0.85513745  1
  F  F44  1  0.82911194  0.84811315  0.39486255  1
  F  F45  1  0.67088806  0.15188685  0.89486255  1
  F  F46  1  0.59811315  0.92088806  0.64486255  1
  F  F47  1  0.90188685  0.07911194  0.14486255  1
  F  F48  1  0.82911194  0.65188685  0.89486255  1
  F  F49  1  0.67088806  0.34811315  0.39486255  1
  F  F50  1  0.59811315  0.57911194  0.14486255  1
  F  F51  1  0.90188685  0.42088806  0.64486255  1
  F  F52  1  0.67088806  0.65188685  0.10513745  1
  F  F53  1  0.82911194  0.34811315  0.60513745  1
  F  F54  1  0.90188685  0.57911194  0.85513745  1
  F  F55  1  0.59811315  0.42088806  0.35513745  1
  F  F56  1  0.17088806  0.34811315  0.10513745  1
  F  F57  1  0.32911194  0.65188685  0.60513745  1
  F  F58  1  0.40188685  0.42088806  0.85513745  1
  F  F59  1  0.09811315  0.57911194  0.35513745  1
  F  F60  1  0.32911194  0.34811315  0.89486255  1
  F  F61  1  0.17088806  0.65188685  0.39486255  1
  F  F62  1  0.09811315  0.42088806  0.14486255  1
  F  F63  1  0.40188685  0.57911194  0.64486255  1
  Li  Li64  1  0.71145062  0.00000000  0.25000000  1
  Li  Li65  1  0.78854938  0.00000000  0.75000000  1
  Li  Li66  1  0.25000000  0.46145062  0.50000000  1
  Li  Li67  1  0.25000000  0.53854938  0.00000000  1
  Li  Li68  1  0.28854938  0.00000000  0.75000000  1
  Li  Li69  1  0.21145062  0.00000000  0.25000000  1
  Li  Li70  1  0.75000000  0.53854938  0.50000000  1
  Li  Li71  1  0.75000000  0.46145062  -0.00000000  1
  Li  Li72  1  0.21145062  0.50000000  0.75000000  1
  Li  Li73  1  0.28854938  0.50000000  0.25000000  1
  Li  Li74  1  0.75000000  0.96145062  0.00000000  1
  Li  Li75  1  0.75000000  0.03854938  0.50000000  1
  Li  Li76  1  0.78854938  0.50000000  0.25000000  1
  Li  Li77  1  0.71145062  0.50000000  0.75000000  1
  Li  Li78  1  0.25000000  0.03854938  -0.00000000  1
  Li  Li79  1  0.25000000  0.96145062  0.50000000  1
  Li  Li80  1  0.19159110  0.93930593  0.70698036  1
  Li  Li81  1  0.30840890  -0.93930593  1.20698036  1
  Li  Li82  1  -0.68930593  0.94159110  0.95698036  1
  Li  Li83  1  1.18930593  0.05840890  1.45698036  1
  Li  Li84  1  0.30840890  0.93930593  -0.70698036  1
  Li  Li85  1  0.19159110  -0.93930593  -0.20698036  1
  Li  Li86  1  1.18930593  0.94159110  0.04301964  1
  Li  Li87  1  -0.68930593  0.05840890  -0.45698036  1
  Li  Li88  1  -0.19159110  -0.93930593  -0.70698036  1
  Li  Li89  1  0.69159110  0.93930593  -0.20698036  1
  Li  Li90  1  1.68930593  0.05840890  0.04301964  1
  Li  Li91  1  -0.18930593  0.94159110  -0.45698036  1
  Li  Li92  1  0.69159110  -0.93930593  0.70698036  1
  Li  Li93  1  -0.19159110  0.93930593  1.20698036  1
  Li  Li94  1  -0.18930593  0.05840890  0.95698036  1
  Li  Li95  1  1.68930593  0.94159110  1.45698036  1
  Li  Li96  1  0.69159110  1.43930593  1.20698036  1
  Li  Li97  1  0.80840890  -0.43930593  1.70698036  1
  Li  Li98  1  -0.18930593  1.44159110  1.45698036  1
  Li  Li99  1  1.68930593  0.55840890  1.95698036  1
  Li  Li100  1  0.80840890  1.43930593  -0.20698036  1
  Li  Li101  1  0.69159110  -0.43930593  0.29301964  1
  Li  Li102  1  1.68930593  1.44159110  0.54301964  1
  Li  Li103  1  -0.18930593  0.55840890  0.04301964  1
  Li  Li104  1  0.30840890  -0.43930593  -0.20698036  1
  Li  Li105  1  1.19159110  1.43930593  0.29301964  1
  Li  Li106  1  2.18930593  0.55840890  0.54301964  1
  Li  Li107  1  0.31069407  1.44159110  0.04301964  1
  Li  Li108  1  1.19159110  -0.43930593  1.20698036  1
  Li  Li109  1  0.30840890  1.43930593  1.70698036  1
  Li  Li110  1  0.31069407  0.55840890  1.45698036  1
  Li  Li111  1  2.18930593  1.44159110  1.95698036  1
  Li  Li112  1  0.00000000  0.00000000  0.00000000  1
  Li  Li113  1  0.50000000  0.00000000  0.50000000  1
  Li  Li114  1  0.25000000  0.75000000  0.25000000  1
  Li  Li115  1  0.25000000  0.25000000  0.75000000  1
  Li  Li116  1  0.50000000  0.00000000  0.00000000  1
  Li  Li117  1  0.00000000  0.00000000  0.50000000  1
  Li  Li118  1  0.25000000  0.75000000  0.75000000  1
  Li  Li119  1  0.25000000  0.25000000  0.25000000  1
  Li  Li120  1  0.50000000  0.50000000  0.50000000  1
  Li  Li121  1  0.00000000  0.50000000  0.00000000  1
  Li  Li122  1  0.75000000  0.25000000  0.75000000  1
  Li  Li123  1  0.75000000  0.75000000  0.25000000  1
  Li  Li124  1  0.00000000  0.50000000  0.50000000  1
  Li  Li125  1  0.50000000  0.50000000  0.00000000  1
  Li  Li126  1  0.75000000  0.25000000  0.25000000  1
  Li  Li127  1  0.75000000  0.75000000  0.75000000  1
