# generated using pymatgen
data_Li2CaSeF2
_symmetry_space_group_name_H-M   'P 1'
_cell_length_a   7.63808469
_cell_length_b   8.66207279
_cell_length_c   6.06134036
_cell_angle_alpha   90.00000000
_cell_angle_beta   90.00000000
_cell_angle_gamma   90.00000000
_symmetry_Int_Tables_number   1
_chemical_formula_structural   Li2CaSeF2
_chemical_formula_sum   'Li8 Ca4 Se4 F8'
_cell_volume   401.02825207
_cell_formula_units_Z   4
loop_
 _symmetry_equiv_pos_site_id
 _symmetry_equiv_pos_as_xyz
  1  'x, y, z'
loop_
 _atom_site_type_symbol
 _atom_site_label
 _atom_site_symmetry_multiplicity
 _atom_site_fract_x
 _atom_site_fract_y
 _atom_site_fract_z
 _atom_site_occupancy
  Ca  Ca0  1  0.23149825  0.25000000  0.91759919  1
  Ca  Ca1  1  0.26850175  0.75000000  0.41759919  1
  Ca  Ca2  1  0.76850175  0.75000000  0.08240081  1
  Ca  Ca3  1  0.73149825  0.25000000  0.58240081  1
  F  F4  1  0.70983848  0.25000000  0.99108143  1
  F  F5  1  0.79016152  0.75000000  0.49108143  1
  F  F6  1  0.29016152  0.75000000  0.00891857  1
  F  F7  1  0.20983848  0.25000000  0.50891857  1
  F  F8  1  0.00000000  0.00000000  0.00000000  1
  F  F9  1  0.50000000  0.00000000  0.50000000  1
  F  F10  1  0.00000000  0.50000000  0.00000000  1
  F  F11  1  0.50000000  0.50000000  0.50000000  1
  Li  Li12  1  0.23023018  0.36986738  0.23922915  1
  Li  Li13  1  0.26976982  -0.36986738  0.73922915  1
  Li  Li14  1  -0.23023018  0.86986738  -0.23922915  1
  Li  Li15  1  0.73023018  0.13013262  0.26077085  1
  Li  Li16  1  -0.23023018  -0.36986738  -0.23922915  1
  Li  Li17  1  0.73023018  0.36986738  0.26077085  1
  Li  Li18  1  0.23023018  0.13013262  0.23922915  1
  Li  Li19  1  0.26976982  0.86986738  0.73922915  1
  Se  Se20  1  0.00000000  0.00000000  0.50000000  1
  Se  Se21  1  0.50000000  0.00000000  0.00000000  1
  Se  Se22  1  0.00000000  0.50000000  0.50000000  1
  Se  Se23  1  0.50000000  0.50000000  -0.00000000  1
