# generated using pymatgen
data_LiY2Sb2PSe
_symmetry_space_group_name_H-M   'P 1'
_cell_length_a   4.84766656
_cell_length_b   4.93091335
_cell_length_c   5.76871494
_cell_angle_alpha   93.86243932
_cell_angle_beta   93.84376730
_cell_angle_gamma   98.35032899
_symmetry_Int_Tables_number   1
_chemical_formula_structural   LiY2Sb2PSe
_chemical_formula_sum   'Li1 Y2 Sb2 P1 Se1'
_cell_volume   135.70753014
_cell_formula_units_Z   1
loop_
 _symmetry_equiv_pos_site_id
 _symmetry_equiv_pos_as_xyz
  1  'x, y, z'
loop_
 _atom_site_type_symbol
 _atom_site_label
 _atom_site_symmetry_multiplicity
 _atom_site_fract_x
 _atom_site_fract_y
 _atom_site_fract_z
 _atom_site_occupancy
  Se  Se0  1  0.12500000  0.00000000  0.25000000  1
  Y  Y1  1  0.00000000  0.00000000  0.00000000  1
  Y  Y2  1  0.37500000  0.00000000  0.25000000  1
  P  P3  1  0.25000000  0.25000000  0.25000000  1
  Li  Li4  1  0.00000000  0.25000000  0.12500000  1
  Sb  Sb5  1  0.78489317  0.80731227  0.14289237  1
  Sb  Sb6  1  0.08239518  0.15200947  0.00283528  1
