# generated using pymatgen
data_LiF
_symmetry_space_group_name_H-M   'P 1'
_cell_length_a   6.21683904
_cell_length_b   6.51301128
_cell_length_c   11.47553450
_cell_angle_alpha   90.00000000
_cell_angle_beta   90.00000000
_cell_angle_gamma   90.00000000
_symmetry_Int_Tables_number   1
_chemical_formula_structural   LiF
_chemical_formula_sum   'Li24 F24'
_cell_volume   464.64832524
_cell_formula_units_Z   24
loop_
 _symmetry_equiv_pos_site_id
 _symmetry_equiv_pos_as_xyz
  1  'x, y, z'
loop_
 _atom_site_type_symbol
 _atom_site_label
 _atom_site_symmetry_multiplicity
 _atom_site_fract_x
 _atom_site_fract_y
 _atom_site_fract_z
 _atom_site_occupancy
  F  F0  1  0.93423848  0.25000000  0.55186683  1
  F  F1  1  0.56576152  0.75000000  0.05186683  1
  F  F2  1  0.06576152  0.75000000  0.44813317  1
  F  F3  1  0.43423848  0.25000000  0.94813317  1
  F  F4  1  0.91453827  0.37621918  0.35380710  1
  F  F5  1  0.58546173  0.62378082  0.85380710  1
  F  F6  1  0.08546173  0.87621918  0.64619290  1
  F  F7  1  0.41453827  0.12378082  0.14619290  1
  F  F8  1  0.08546173  0.62378082  0.64619290  1
  F  F9  1  0.41453827  0.37621918  0.14619290  1
  F  F10  1  0.91453827  0.12378082  0.35380710  1
  F  F11  1  0.58546173  0.87621918  0.85380710  1
  F  F12  1  0.47597112  0.33035544  0.93527047  1
  F  F13  1  0.02402888  0.66964456  0.43527047  1
  F  F14  1  0.52402888  0.83035544  0.06472953  1
  F  F15  1  0.97597112  0.16964456  0.56472953  1
  F  F16  1  0.52402888  0.66964456  0.06472953  1
  F  F17  1  0.97597112  0.33035544  0.56472953  1
  F  F18  1  0.47597112  0.16964456  0.93527047  1
  F  F19  1  0.02402888  0.83035544  0.43527047  1
  F  F20  1  0.68980335  0.25000000  0.04979232  1
  F  F21  1  0.81019665  0.75000000  0.54979232  1
  F  F22  1  0.31019665  0.75000000  0.95020768  1
  F  F23  1  0.18980335  0.25000000  0.45020768  1
  Li  Li24  1  0.00000000  0.00000000  0.50000000  1
  Li  Li25  1  0.50000000  0.00000000  -0.00000000  1
  Li  Li26  1  0.00000000  0.50000000  0.50000000  1
  Li  Li27  1  0.50000000  0.50000000  0.00000000  1
  Li  Li28  1  0.20537582  0.25000000  0.15307700  1
  Li  Li29  1  0.29462418  0.75000000  0.65307700  1
  Li  Li30  1  0.79462418  0.75000000  0.84692300  1
  Li  Li31  1  0.70537582  0.25000000  0.34692300  1
  Li  Li32  1  0.90342165  0.51025426  0.66563204  1
  Li  Li33  1  -0.40342165  -0.51025426  1.16563204  1
  Li  Li34  1  -0.90342165  1.01025426  -0.66563204  1
  Li  Li35  1  1.40342165  -0.01025426  -0.16563204  1
  Li  Li36  1  -0.90342165  -0.51025426  -0.66563204  1
  Li  Li37  1  1.40342165  0.51025426  -0.16563204  1
  Li  Li38  1  0.90342165  -0.01025426  0.66563204  1
  Li  Li39  1  -0.40342165  1.01025426  1.16563204  1
  Li  Li40  1  0.76913415  0.25000000  0.53225873  1
  Li  Li41  1  0.73086585  0.75000000  0.03225873  1
  Li  Li42  1  0.23086585  0.75000000  0.46774127  1
  Li  Li43  1  0.26913415  0.25000000  0.96774127  1
  Li  Li44  1  0.00000000  0.00000000  0.00000000  1
  Li  Li45  1  0.50000000  0.00000000  0.50000000  1
  Li  Li46  1  0.00000000  0.50000000  0.00000000  1
  Li  Li47  1  0.50000000  0.50000000  0.50000000  1
