# generated using pymatgen
data_Li2Y2P3Se
_symmetry_space_group_name_H-M   'P 1'
_cell_length_a   4.08752932
_cell_length_b   4.38941417
_cell_length_c   6.48696889
_cell_angle_alpha   96.04368070
_cell_angle_beta   101.90139121
_cell_angle_gamma   112.29828317
_symmetry_Int_Tables_number   1
_chemical_formula_structural   Li2Y2P3Se
_chemical_formula_sum   'Li2 Y2 P3 Se1'
_cell_volume   103.18211646
_cell_formula_units_Z   1
loop_
 _symmetry_equiv_pos_site_id
 _symmetry_equiv_pos_as_xyz
  1  'x, y, z'
loop_
 _atom_site_type_symbol
 _atom_site_label
 _atom_site_symmetry_multiplicity
 _atom_site_fract_x
 _atom_site_fract_y
 _atom_site_fract_z
 _atom_site_occupancy
  Y  Y0  1  0.00000000  0.00000000  0.00000000  1
  Y  Y1  1  0.33300000  0.66700000  0.25000000  1
  P  P2  1  0.66700000  0.33300000  0.50000000  1
  P  P3  1  0.00000000  0.00000000  0.75000000  1
  P  P4  1  0.97339074  0.02081373  0.62936614  1
  Se  Se5  1  0.33681906  0.34510083  0.36025530  1
  Li  Li6  1  0.27784802  0.51389627  0.02344582  1
  Li  Li7  1  0.62859569  0.33255132  0.91777070  1
