# generated using pymatgen
data_LiF
_symmetry_space_group_name_H-M   'P 1'
_cell_length_a   8.81309727
_cell_length_b   8.81309727
_cell_length_c   18.95088619
_cell_angle_alpha   90.00000000
_cell_angle_beta   90.00000000
_cell_angle_gamma   90.00000000
_symmetry_Int_Tables_number   1
_chemical_formula_structural   LiF
_chemical_formula_sum   'Li48 F48'
_cell_volume   1471.92828365
_cell_formula_units_Z   48
loop_
 _symmetry_equiv_pos_site_id
 _symmetry_equiv_pos_as_xyz
  1  'x, y, z'
loop_
 _atom_site_type_symbol
 _atom_site_label
 _atom_site_symmetry_multiplicity
 _atom_site_fract_x
 _atom_site_fract_y
 _atom_site_fract_z
 _atom_site_occupancy
  F  F0  1  0.34096343  0.42296304  0.42926281  1
  F  F1  1  0.15903657  -0.42296304  0.92926281  1
  F  F2  1  -0.17296304  1.09096343  0.67926281  1
  F  F3  1  0.67296304  -0.09096343  1.17926281  1
  F  F4  1  0.15903657  0.42296304  -0.42926281  1
  F  F5  1  0.34096343  -0.42296304  0.07073719  1
  F  F6  1  0.67296304  1.09096343  0.32073719  1
  F  F7  1  -0.17296304  -0.09096343  -0.17926281  1
  F  F8  1  -0.34096343  -0.42296304  -0.42926281  1
  F  F9  1  0.84096343  0.42296304  0.07073719  1
  F  F10  1  1.17296304  -0.09096343  0.32073719  1
  F  F11  1  0.32703696  1.09096343  -0.17926281  1
  F  F12  1  0.84096343  -0.42296304  0.42926281  1
  F  F13  1  -0.34096343  0.42296304  0.92926281  1
  F  F14  1  0.32703696  -0.09096343  0.67926281  1
  F  F15  1  1.17296304  1.09096343  1.17926281  1
  F  F16  1  0.84096343  0.92296304  0.92926281  1
  F  F17  1  0.65903657  0.07703696  1.42926281  1
  F  F18  1  0.32703696  1.59096343  1.17926281  1
  F  F19  1  1.17296304  0.40903657  1.67926281  1
  F  F20  1  0.65903657  0.92296304  0.07073719  1
  F  F21  1  0.84096343  0.07703696  0.57073719  1
  F  F22  1  1.17296304  1.59096343  0.82073719  1
  F  F23  1  0.32703696  0.40903657  0.32073719  1
  F  F24  1  0.15903657  0.07703696  0.07073719  1
  F  F25  1  1.34096343  0.92296304  0.57073719  1
  F  F26  1  1.67296304  0.40903657  0.82073719  1
  F  F27  1  0.82703696  1.59096343  0.32073719  1
  F  F28  1  1.34096343  0.07703696  0.92926281  1
  F  F29  1  0.15903657  0.92296304  1.42926281  1
  F  F30  1  0.82703696  0.40903657  1.17926281  1
  F  F31  1  1.67296304  1.59096343  1.67926281  1
  F  F32  1  0.00000000  0.25000000  0.12500000  1
  F  F33  1  0.00000000  0.75000000  0.37500000  1
  F  F34  1  0.00000000  0.75000000  0.87500000  1
  F  F35  1  0.00000000  0.25000000  0.62500000  1
  F  F36  1  0.50000000  0.75000000  0.62500000  1
  F  F37  1  0.50000000  0.25000000  0.87500000  1
  F  F38  1  0.50000000  0.25000000  0.37500000  1
  F  F39  1  0.50000000  0.75000000  0.12500000  1
  F  F40  1  0.00000000  0.25000000  0.37500000  1
  F  F41  1  0.00000000  0.75000000  0.62500000  1
  F  F42  1  0.50000000  0.25000000  0.62500000  1
  F  F43  1  0.50000000  0.75000000  0.37500000  1
  F  F44  1  0.50000000  0.75000000  0.87500000  1
  F  F45  1  0.50000000  0.25000000  0.12500000  1
  F  F46  1  0.00000000  0.75000000  0.12500000  1
  F  F47  1  0.00000000  0.25000000  0.87500000  1
  Li  Li48  1  0.00000000  0.25000000  0.18703429  1
  Li  Li49  1  0.00000000  0.75000000  0.43703429  1
  Li  Li50  1  0.50000000  0.25000000  0.81296571  1
  Li  Li51  1  0.50000000  0.75000000  0.56296571  1
  Li  Li52  1  0.00000000  0.75000000  0.81296571  1
  Li  Li53  1  0.00000000  0.25000000  0.56296571  1
  Li  Li54  1  0.50000000  0.75000000  0.18703429  1
  Li  Li55  1  0.50000000  0.25000000  0.43703429  1
  Li  Li56  1  0.50000000  0.75000000  0.68703429  1
  Li  Li57  1  0.50000000  0.25000000  0.93703429  1
  Li  Li58  1  0.00000000  0.75000000  0.31296571  1
  Li  Li59  1  0.00000000  0.25000000  0.06296571  1
  Li  Li60  1  0.50000000  0.25000000  0.31296571  1
  Li  Li61  1  0.50000000  0.75000000  0.06296571  1
  Li  Li62  1  0.00000000  0.25000000  0.68703429  1
  Li  Li63  1  0.00000000  0.75000000  0.93703429  1
  Li  Li64  1  0.25926978  0.88613858  0.41377661  1
  Li  Li65  1  0.24073022  0.11386142  0.91377661  1
  Li  Li66  1  0.36386142  0.00926978  0.66377661  1
  Li  Li67  1  0.13613858  0.99073022  0.16377661  1
  Li  Li68  1  0.24073022  0.88613858  0.58622339  1
  Li  Li69  1  0.25926978  0.11386142  0.08622339  1
  Li  Li70  1  0.13613858  0.00926978  0.33622339  1
  Li  Li71  1  0.36386142  0.99073022  0.83622339  1
  Li  Li72  1  0.74073022  0.11386142  0.58622339  1
  Li  Li73  1  0.75926978  0.88613858  0.08622339  1
  Li  Li74  1  0.63613858  0.99073022  0.33622339  1
  Li  Li75  1  0.86386142  0.00926978  0.83622339  1
  Li  Li76  1  0.75926978  0.11386142  0.41377661  1
  Li  Li77  1  0.74073022  0.88613858  0.91377661  1
  Li  Li78  1  0.86386142  0.99073022  0.66377661  1
  Li  Li79  1  0.63613858  0.00926978  0.16377661  1
  Li  Li80  1  0.75926978  0.38613858  0.91377661  1
  Li  Li81  1  0.74073022  0.61386142  0.41377661  1
  Li  Li82  1  0.86386142  0.50926978  0.16377661  1
  Li  Li83  1  0.63613858  0.49073022  0.66377661  1
  Li  Li84  1  0.74073022  0.38613858  0.08622339  1
  Li  Li85  1  0.75926978  0.61386142  0.58622339  1
  Li  Li86  1  0.63613858  0.50926978  0.83622339  1
  Li  Li87  1  0.86386142  0.49073022  0.33622339  1
  Li  Li88  1  0.24073022  0.61386142  0.08622339  1
  Li  Li89  1  0.25926978  0.38613858  0.58622339  1
  Li  Li90  1  0.13613858  0.49073022  0.83622339  1
  Li  Li91  1  0.36386142  0.50926978  0.33622339  1
  Li  Li92  1  0.25926978  0.61386142  0.91377661  1
  Li  Li93  1  0.24073022  0.38613858  0.41377661  1
  Li  Li94  1  0.36386142  0.49073022  0.16377661  1
  Li  Li95  1  0.13613858  0.50926978  0.66377661  1
