# generated using pymatgen
data_Li4TeF2
_symmetry_space_group_name_H-M   'P 1'
_cell_length_a   17.12100185
_cell_length_b   17.12100185
_cell_length_c   11.24277916
_cell_angle_alpha   90.00000000
_cell_angle_beta   90.00000000
_cell_angle_gamma   90.00000000
_symmetry_Int_Tables_number   1
_chemical_formula_structural   Li4TeF2
_chemical_formula_sum   'Li96 Te24 F48'
_cell_volume   3295.58128663
_cell_formula_units_Z   24
loop_
 _symmetry_equiv_pos_site_id
 _symmetry_equiv_pos_as_xyz
  1  'x, y, z'
loop_
 _atom_site_type_symbol
 _atom_site_label
 _atom_site_symmetry_multiplicity
 _atom_site_fract_x
 _atom_site_fract_y
 _atom_site_fract_z
 _atom_site_occupancy
  F  F0  1  0.83310671  0.08310671  0.12500000  1
  F  F1  1  0.66689329  0.91689329  0.62500000  1
  F  F2  1  0.16689329  0.58310671  0.37500000  1
  F  F3  1  0.33310671  0.41689329  0.87500000  1
  F  F4  1  0.16689329  0.91689329  0.87500000  1
  F  F5  1  0.33310671  0.08310671  0.37500000  1
  F  F6  1  0.83310671  0.41689329  0.62500000  1
  F  F7  1  0.66689329  0.58310671  0.12500000  1
  F  F8  1  0.33310671  0.58310671  0.62500000  1
  F  F9  1  0.16689329  0.41689329  0.12500000  1
  F  F10  1  0.66689329  0.08310671  0.87500000  1
  F  F11  1  0.83310671  0.91689329  0.37500000  1
  F  F12  1  0.66689329  0.41689329  0.37500000  1
  F  F13  1  0.83310671  0.58310671  0.87500000  1
  F  F14  1  0.33310671  0.91689329  0.12500000  1
  F  F15  1  0.16689329  0.08310671  0.62500000  1
  F  F16  1  0.73989798  0.35716896  0.67792187  1
  F  F17  1  -0.23989798  -0.35716896  1.17792187  1
  F  F18  1  -0.10716896  1.48989798  0.92792187  1
  F  F19  1  0.60716896  -0.48989798  1.42792187  1
  F  F20  1  -0.23989798  0.35716896  -0.67792187  1
  F  F21  1  0.73989798  -0.35716896  -0.17792187  1
  F  F22  1  0.60716896  1.48989798  0.07207813  1
  F  F23  1  -0.10716896  -0.48989798  -0.42792187  1
  F  F24  1  -0.73989798  -0.35716896  -0.67792187  1
  F  F25  1  1.23989798  0.35716896  -0.17792187  1
  F  F26  1  1.10716896  -0.48989798  0.07207813  1
  F  F27  1  0.39283104  1.48989798  -0.42792187  1
  F  F28  1  1.23989798  -0.35716896  0.67792187  1
  F  F29  1  -0.73989798  0.35716896  1.17792187  1
  F  F30  1  0.39283104  -0.48989798  0.92792187  1
  F  F31  1  1.10716896  1.48989798  1.42792187  1
  F  F32  1  1.23989798  0.85716896  1.17792187  1
  F  F33  1  0.26010202  0.14283104  1.67792187  1
  F  F34  1  0.39283104  1.98989798  1.42792187  1
  F  F35  1  1.10716896  0.01010202  1.92792187  1
  F  F36  1  0.26010202  0.85716896  -0.17792187  1
  F  F37  1  1.23989798  0.14283104  0.32207813  1
  F  F38  1  1.10716896  1.98989798  0.57207813  1
  F  F39  1  0.39283104  0.01010202  0.07207813  1
  F  F40  1  -0.23989798  0.14283104  -0.17792187  1
  F  F41  1  1.73989798  0.85716896  0.32207813  1
  F  F42  1  1.60716896  0.01010202  0.57207813  1
  F  F43  1  0.89283104  1.98989798  0.07207813  1
  F  F44  1  1.73989798  0.14283104  1.17792187  1
  F  F45  1  -0.23989798  0.85716896  1.67792187  1
  F  F46  1  0.89283104  0.01010202  1.42792187  1
  F  F47  1  1.60716896  1.98989798  1.92792187  1
  Li  Li48  1  0.59693128  0.75119507  0.46159054  1
  Li  Li49  1  0.90306872  0.24880493  0.96159054  1
  Li  Li50  1  0.49880493  0.34693128  0.71159054  1
  Li  Li51  1  0.00119507  0.65306872  0.21159054  1
  Li  Li52  1  0.90306872  0.75119507  0.53840946  1
  Li  Li53  1  0.59693128  0.24880493  0.03840946  1
  Li  Li54  1  0.00119507  0.34693128  0.28840946  1
  Li  Li55  1  0.49880493  0.65306872  0.78840946  1
  Li  Li56  1  0.40306872  0.24880493  0.53840946  1
  Li  Li57  1  0.09693128  0.75119507  0.03840946  1
  Li  Li58  1  0.50119507  0.65306872  0.28840946  1
  Li  Li59  1  0.99880493  0.34693128  0.78840946  1
  Li  Li60  1  0.09693128  0.24880493  0.46159054  1
  Li  Li61  1  0.40306872  0.75119507  0.96159054  1
  Li  Li62  1  0.99880493  0.65306872  0.71159054  1
  Li  Li63  1  0.50119507  0.34693128  0.21159054  1
  Li  Li64  1  0.09693128  0.25119507  0.96159054  1
  Li  Li65  1  0.40306872  0.74880493  0.46159054  1
  Li  Li66  1  0.99880493  0.84693128  0.21159054  1
  Li  Li67  1  0.50119507  0.15306872  0.71159054  1
  Li  Li68  1  0.40306872  0.25119507  0.03840946  1
  Li  Li69  1  0.09693128  0.74880493  0.53840946  1
  Li  Li70  1  0.50119507  0.84693128  0.78840946  1
  Li  Li71  1  0.99880493  0.15306872  0.28840946  1
  Li  Li72  1  0.90306872  0.74880493  0.03840946  1
  Li  Li73  1  0.59693128  0.25119507  0.53840946  1
  Li  Li74  1  0.00119507  0.15306872  0.78840946  1
  Li  Li75  1  0.49880493  0.84693128  0.28840946  1
  Li  Li76  1  0.59693128  0.74880493  0.96159054  1
  Li  Li77  1  0.90306872  0.25119507  0.46159054  1
  Li  Li78  1  0.49880493  0.15306872  0.21159054  1
  Li  Li79  1  0.00119507  0.84693128  0.71159054  1
  Li  Li80  1  0.80936473  0.65995493  0.94673962  1
  Li  Li81  1  0.69063527  0.34004507  0.44673962  1
  Li  Li82  1  0.59004507  0.55936473  0.19673962  1
  Li  Li83  1  0.90995493  0.44063527  0.69673962  1
  Li  Li84  1  0.69063527  0.65995493  0.05326038  1
  Li  Li85  1  0.80936473  0.34004507  0.55326038  1
  Li  Li86  1  0.90995493  0.55936473  0.80326038  1
  Li  Li87  1  0.59004507  0.44063527  0.30326038  1
  Li  Li88  1  0.19063527  0.34004507  0.05326038  1
  Li  Li89  1  0.30936473  0.65995493  0.55326038  1
  Li  Li90  1  0.40995493  0.44063527  0.80326038  1
  Li  Li91  1  0.09004507  0.55936473  0.30326038  1
  Li  Li92  1  0.30936473  0.34004507  0.94673962  1
  Li  Li93  1  0.19063527  0.65995493  0.44673962  1
  Li  Li94  1  0.09004507  0.44063527  0.19673962  1
  Li  Li95  1  0.40995493  0.55936473  0.69673962  1
  Li  Li96  1  0.30936473  0.15995493  0.44673962  1
  Li  Li97  1  0.19063527  0.84004507  0.94673962  1
  Li  Li98  1  0.09004507  0.05936473  0.69673962  1
  Li  Li99  1  0.40995493  0.94063527  0.19673962  1
  Li  Li100  1  0.19063527  0.15995493  0.55326038  1
  Li  Li101  1  0.30936473  0.84004507  0.05326038  1
  Li  Li102  1  0.40995493  0.05936473  0.30326038  1
  Li  Li103  1  0.09004507  0.94063527  0.80326038  1
  Li  Li104  1  0.69063527  0.84004507  0.55326038  1
  Li  Li105  1  0.80936473  0.15995493  0.05326038  1
  Li  Li106  1  0.90995493  0.94063527  0.30326038  1
  Li  Li107  1  0.59004507  0.05936473  0.80326038  1
  Li  Li108  1  0.80936473  0.84004507  0.44673962  1
  Li  Li109  1  0.69063527  0.15995493  0.94673962  1
  Li  Li110  1  0.59004507  0.94063527  0.69673962  1
  Li  Li111  1  0.90995493  0.05936473  0.19673962  1
  Li  Li112  1  0.72646482  -0.00000000  0.25000000  1
  Li  Li113  1  0.77353518  0.00000000  0.75000000  1
  Li  Li114  1  0.25000000  0.47646482  0.50000000  1
  Li  Li115  1  0.25000000  0.52353518  0.00000000  1
  Li  Li116  1  0.27353518  0.00000000  0.75000000  1
  Li  Li117  1  0.22646482  -0.00000000  0.25000000  1
  Li  Li118  1  0.75000000  0.52353518  0.50000000  1
  Li  Li119  1  0.75000000  0.47646482  0.00000000  1
  Li  Li120  1  0.22646482  0.50000000  0.75000000  1
  Li  Li121  1  0.27353518  0.50000000  0.25000000  1
  Li  Li122  1  0.75000000  0.97646482  0.00000000  1
  Li  Li123  1  0.75000000  0.02353518  0.50000000  1
  Li  Li124  1  0.77353518  0.50000000  0.25000000  1
  Li  Li125  1  0.72646482  0.50000000  0.75000000  1
  Li  Li126  1  0.25000000  0.02353518  0.00000000  1
  Li  Li127  1  0.25000000  0.97646482  0.50000000  1
  Li  Li128  1  0.92570791  0.17570791  0.12500000  1
  Li  Li129  1  0.57429209  0.82429209  0.62500000  1
  Li  Li130  1  0.07429209  0.67570791  0.37500000  1
  Li  Li131  1  0.42570791  0.32429209  0.87500000  1
  Li  Li132  1  0.07429209  0.82429209  0.87500000  1
  Li  Li133  1  0.42570791  0.17570791  0.37500000  1
  Li  Li134  1  0.92570791  0.32429209  0.62500000  1
  Li  Li135  1  0.57429209  0.67570791  0.12500000  1
  Li  Li136  1  0.42570791  0.67570791  0.62500000  1
  Li  Li137  1  0.07429209  0.32429209  0.12500000  1
  Li  Li138  1  0.57429209  0.17570791  0.87500000  1
  Li  Li139  1  0.92570791  0.82429209  0.37500000  1
  Li  Li140  1  0.57429209  0.32429209  0.37500000  1
  Li  Li141  1  0.92570791  0.67570791  0.87500000  1
  Li  Li142  1  0.42570791  0.82429209  0.12500000  1
  Li  Li143  1  0.07429209  0.17570791  0.62500000  1
  Te  Te144  1  0.00000000  0.00000000  0.00000000  1
  Te  Te145  1  0.50000000  0.00000000  0.50000000  1
  Te  Te146  1  0.25000000  0.75000000  0.25000000  1
  Te  Te147  1  0.25000000  0.25000000  0.75000000  1
  Te  Te148  1  0.50000000  0.00000000  0.00000000  1
  Te  Te149  1  0.00000000  0.00000000  0.50000000  1
  Te  Te150  1  0.25000000  0.75000000  0.75000000  1
  Te  Te151  1  0.25000000  0.25000000  0.25000000  1
  Te  Te152  1  0.50000000  0.50000000  0.50000000  1
  Te  Te153  1  0.00000000  0.50000000  0.00000000  1
  Te  Te154  1  0.75000000  0.25000000  0.75000000  1
  Te  Te155  1  0.75000000  0.75000000  0.25000000  1
  Te  Te156  1  0.00000000  0.50000000  0.50000000  1
  Te  Te157  1  0.50000000  0.50000000  0.00000000  1
  Te  Te158  1  0.75000000  0.25000000  0.25000000  1
  Te  Te159  1  0.75000000  0.75000000  0.75000000  1
  Te  Te160  1  0.00000000  0.25000000  0.12500000  1
  Te  Te161  1  0.00000000  0.75000000  0.37500000  1
  Te  Te162  1  0.00000000  0.75000000  0.87500000  1
  Te  Te163  1  0.00000000  0.25000000  0.62500000  1
  Te  Te164  1  0.50000000  0.75000000  0.62500000  1
  Te  Te165  1  0.50000000  0.25000000  0.87500000  1
  Te  Te166  1  0.50000000  0.25000000  0.37500000  1
  Te  Te167  1  0.50000000  0.75000000  0.12500000  1
