# generated using pymatgen
data_LiF
_symmetry_space_group_name_H-M   'P 1'
_cell_length_a   12.95625972
_cell_length_b   12.95625972
_cell_length_c   12.95625972
_cell_angle_alpha   90.00000000
_cell_angle_beta   90.00000000
_cell_angle_gamma   90.00000000
_symmetry_Int_Tables_number   1
_chemical_formula_structural   LiF
_chemical_formula_sum   'Li64 F64'
_cell_volume   2174.89820996
_cell_formula_units_Z   64
loop_
 _symmetry_equiv_pos_site_id
 _symmetry_equiv_pos_as_xyz
  1  'x, y, z'
loop_
 _atom_site_type_symbol
 _atom_site_label
 _atom_site_symmetry_multiplicity
 _atom_site_fract_x
 _atom_site_fract_y
 _atom_site_fract_z
 _atom_site_occupancy
  F  F0  1  0.69716376  0.36057352  0.63010344  1
  F  F1  1  -0.19716376  -0.36057352  1.13010344  1
  F  F2  1  -0.69716376  0.86057352  -0.13010344  1
  F  F3  1  1.19716376  0.13942648  -0.63010344  1
  F  F4  1  0.63010344  0.69716376  0.36057352  1
  F  F5  1  1.13010344  -0.19716376  -0.36057352  1
  F  F6  1  -0.13010344  -0.69716376  0.86057352  1
  F  F7  1  -0.63010344  1.19716376  0.13942648  1
  F  F8  1  0.36057352  0.63010344  0.69716376  1
  F  F9  1  -0.36057352  1.13010344  -0.19716376  1
  F  F10  1  0.86057352  -0.13010344  -0.69716376  1
  F  F11  1  0.13942648  -0.63010344  1.19716376  1
  F  F12  1  1.11057352  0.94716376  -0.38010344  1
  F  F13  1  0.38942648  0.05283624  0.11989656  1
  F  F14  1  0.61057352  -0.44716376  1.38010344  1
  F  F15  1  -0.11057352  1.44716376  0.88010344  1
  F  F16  1  1.44716376  0.88010344  -0.11057352  1
  F  F17  1  -0.44716376  1.38010344  0.61057352  1
  F  F18  1  0.05283624  0.11989656  0.38942648  1
  F  F19  1  0.94716376  -0.38010344  1.11057352  1
  F  F20  1  1.38010344  0.61057352  -0.44716376  1
  F  F21  1  0.88010344  -0.11057352  1.44716376  1
  F  F22  1  -0.38010344  1.11057352  0.94716376  1
  F  F23  1  0.11989656  0.38942648  0.05283624  1
  F  F24  1  1.19716376  0.86057352  1.13010344  1
  F  F25  1  0.30283624  0.13942648  1.63010344  1
  F  F26  1  -0.19716376  1.36057352  0.36989656  1
  F  F27  1  1.69716376  0.63942648  -0.13010344  1
  F  F28  1  1.13010344  1.19716376  0.86057352  1
  F  F29  1  1.63010344  0.30283624  0.13942648  1
  F  F30  1  0.36989656  -0.19716376  1.36057352  1
  F  F31  1  -0.13010344  1.69716376  0.63942648  1
  F  F32  1  0.86057352  1.13010344  1.19716376  1
  F  F33  1  0.13942648  1.63010344  0.30283624  1
  F  F34  1  1.36057352  0.36989656  -0.19716376  1
  F  F35  1  0.63942648  -0.13010344  1.69716376  1
  F  F36  1  1.61057352  1.44716376  0.11989656  1
  F  F37  1  0.88942648  0.55283624  0.61989656  1
  F  F38  1  1.11057352  0.05283624  1.88010344  1
  F  F39  1  0.38942648  1.94716376  1.38010344  1
  F  F40  1  1.94716376  1.38010344  0.38942648  1
  F  F41  1  0.05283624  1.88010344  1.11057352  1
  F  F42  1  0.55283624  0.61989656  0.88942648  1
  F  F43  1  1.44716376  0.11989656  1.61057352  1
  F  F44  1  1.88010344  1.11057352  0.05283624  1
  F  F45  1  1.38010344  0.38942648  1.94716376  1
  F  F46  1  0.11989656  1.61057352  1.44716376  1
  F  F47  1  0.61989656  0.88942648  0.55283624  1
  F  F48  1  0.29416189  0.29416189  0.29416189  1
  F  F49  1  0.20583811  0.70583811  0.79416189  1
  F  F50  1  0.70583811  0.79416189  0.20583811  1
  F  F51  1  0.79416189  0.20583811  0.70583811  1
  F  F52  1  0.04416189  0.54416189  0.95583811  1
  F  F53  1  0.45583811  0.45583811  0.45583811  1
  F  F54  1  0.54416189  0.95583811  0.04416189  1
  F  F55  1  0.95583811  0.04416189  0.54416189  1
  F  F56  1  0.79416189  0.79416189  0.79416189  1
  F  F57  1  0.70583811  0.20583811  0.29416189  1
  F  F58  1  0.20583811  0.29416189  0.70583811  1
  F  F59  1  0.29416189  0.70583811  0.20583811  1
  F  F60  1  0.54416189  0.04416189  0.45583811  1
  F  F61  1  0.95583811  0.95583811  0.95583811  1
  F  F62  1  0.04416189  0.45583811  0.54416189  1
  F  F63  1  0.45583811  0.54416189  0.04416189  1
  Li  Li64  1  0.12500000  0.12500000  0.12500000  1
  Li  Li65  1  0.37500000  0.87500000  0.62500000  1
  Li  Li66  1  0.87500000  0.62500000  0.37500000  1
  Li  Li67  1  0.62500000  0.37500000  0.87500000  1
  Li  Li68  1  0.62500000  0.62500000  0.62500000  1
  Li  Li69  1  0.87500000  0.37500000  0.12500000  1
  Li  Li70  1  0.37500000  0.12500000  0.87500000  1
  Li  Li71  1  0.12500000  0.87500000  0.37500000  1
  Li  Li72  1  0.36054094  0.59486538  0.45207676  1
  Li  Li73  1  0.13945906  0.40513462  0.95207676  1
  Li  Li74  1  0.63945906  0.09486538  0.04792324  1
  Li  Li75  1  0.86054094  0.90513462  0.54792324  1
  Li  Li76  1  0.45207676  0.36054094  0.59486538  1
  Li  Li77  1  0.95207676  0.13945906  0.40513462  1
  Li  Li78  1  0.04792324  0.63945906  0.09486538  1
  Li  Li79  1  0.54792324  0.86054094  0.90513462  1
  Li  Li80  1  0.59486538  0.45207676  0.36054094  1
  Li  Li81  1  0.40513462  0.95207676  0.13945906  1
  Li  Li82  1  0.09486538  0.04792324  0.63945906  1
  Li  Li83  1  0.90513462  0.54792324  0.86054094  1
  Li  Li84  1  0.34486538  0.61054094  0.79792324  1
  Li  Li85  1  0.15513462  0.38945906  0.29792324  1
  Li  Li86  1  0.84486538  0.88945906  0.20207676  1
  Li  Li87  1  0.65513462  0.11054094  0.70207676  1
  Li  Li88  1  0.11054094  0.70207676  0.65513462  1
  Li  Li89  1  0.88945906  0.20207676  0.84486538  1
  Li  Li90  1  0.38945906  0.29792324  0.15513462  1
  Li  Li91  1  0.61054094  0.79792324  0.34486538  1
  Li  Li92  1  0.20207676  0.84486538  0.88945906  1
  Li  Li93  1  0.70207676  0.65513462  0.11054094  1
  Li  Li94  1  0.79792324  0.34486538  0.61054094  1
  Li  Li95  1  0.29792324  0.15513462  0.38945906  1
  Li  Li96  1  0.86054094  0.09486538  0.95207676  1
  Li  Li97  1  0.63945906  0.90513462  0.45207676  1
  Li  Li98  1  0.13945906  0.59486538  0.54792324  1
  Li  Li99  1  0.36054094  0.40513462  0.04792324  1
  Li  Li100  1  0.95207676  0.86054094  0.09486538  1
  Li  Li101  1  0.45207676  0.63945906  0.90513462  1
  Li  Li102  1  0.54792324  0.13945906  0.59486538  1
  Li  Li103  1  0.04792324  0.36054094  0.40513462  1
  Li  Li104  1  0.09486538  0.95207676  0.86054094  1
  Li  Li105  1  0.90513462  0.45207676  0.63945906  1
  Li  Li106  1  0.59486538  0.54792324  0.13945906  1
  Li  Li107  1  0.40513462  0.04792324  0.36054094  1
  Li  Li108  1  0.84486538  0.11054094  0.29792324  1
  Li  Li109  1  0.65513462  0.88945906  0.79792324  1
  Li  Li110  1  0.34486538  0.38945906  0.70207676  1
  Li  Li111  1  0.15513462  0.61054094  0.20207676  1
  Li  Li112  1  0.61054094  0.20207676  0.15513462  1
  Li  Li113  1  0.38945906  0.70207676  0.34486538  1
  Li  Li114  1  0.88945906  0.79792324  0.65513462  1
  Li  Li115  1  0.11054094  0.29792324  0.84486538  1
  Li  Li116  1  0.70207676  0.34486538  0.38945906  1
  Li  Li117  1  0.20207676  0.15513462  0.61054094  1
  Li  Li118  1  0.29792324  0.84486538  0.11054094  1
  Li  Li119  1  0.79792324  0.65513462  0.88945906  1
  Li  Li120  1  0.87500000  0.87500000  0.87500000  1
  Li  Li121  1  0.62500000  0.12500000  0.37500000  1
  Li  Li122  1  0.12500000  0.37500000  0.62500000  1
  Li  Li123  1  0.37500000  0.62500000  0.12500000  1
  Li  Li124  1  0.37500000  0.37500000  0.37500000  1
  Li  Li125  1  0.12500000  0.62500000  0.87500000  1
  Li  Li126  1  0.62500000  0.87500000  0.12500000  1
  Li  Li127  1  0.87500000  0.12500000  0.62500000  1
