# generated using pymatgen
data_LiF
_symmetry_space_group_name_H-M   'P 1'
_cell_length_a   9.72011359
_cell_length_b   12.38392108
_cell_length_c   6.90006245
_cell_angle_alpha   90.00000000
_cell_angle_beta   90.00000000
_cell_angle_gamma   90.00000000
_symmetry_Int_Tables_number   1
_chemical_formula_structural   LiF
_chemical_formula_sum   'Li24 F24'
_cell_volume   830.58204240
_cell_formula_units_Z   24
loop_
 _symmetry_equiv_pos_site_id
 _symmetry_equiv_pos_as_xyz
  1  'x, y, z'
loop_
 _atom_site_type_symbol
 _atom_site_label
 _atom_site_symmetry_multiplicity
 _atom_site_fract_x
 _atom_site_fract_y
 _atom_site_fract_z
 _atom_site_occupancy
  F  F0  1  0.00000000  0.00000000  0.50000000  1
  F  F1  1  0.50000000  0.00000000  0.00000000  1
  F  F2  1  0.00000000  0.50000000  0.50000000  1
  F  F3  1  0.50000000  0.50000000  0.00000000  1
  F  F4  1  0.05595221  0.35949790  0.34101800  1
  F  F5  1  0.44404779  0.64050210  0.84101800  1
  F  F6  1  0.94404779  0.85949790  0.65898200  1
  F  F7  1  0.55595221  0.14050210  0.15898200  1
  F  F8  1  0.94404779  0.64050210  0.65898200  1
  F  F9  1  0.55595221  0.35949790  0.15898200  1
  F  F10  1  0.05595221  0.14050210  0.34101800  1
  F  F11  1  0.44404779  0.85949790  0.84101800  1
  F  F12  1  0.90561166  0.42587894  0.94075476  1
  F  F13  1  0.59438834  0.57412106  0.44075476  1
  F  F14  1  0.09438834  0.92587894  0.05924524  1
  F  F15  1  0.40561166  0.07412106  0.55924524  1
  F  F16  1  0.09438834  0.57412106  0.05924524  1
  F  F17  1  0.40561166  0.42587894  0.55924524  1
  F  F18  1  0.90561166  0.07412106  0.94075476  1
  F  F19  1  0.59438834  0.92587894  0.44075476  1
  F  F20  1  0.12479412  0.25000000  0.77309822  1
  F  F21  1  0.37520588  0.75000000  0.27309822  1
  F  F22  1  0.87520588  0.75000000  0.22690178  1
  F  F23  1  0.62479412  0.25000000  0.72690178  1
  Li  Li24  1  0.26307062  0.57560323  0.59919270  1
  Li  Li25  1  0.23692938  -0.57560323  1.09919270  1
  Li  Li26  1  -0.26307062  1.07560323  -0.59919270  1
  Li  Li27  1  0.76307062  -0.07560323  -0.09919270  1
  Li  Li28  1  -0.26307062  -0.57560323  -0.59919270  1
  Li  Li29  1  0.76307062  0.57560323  -0.09919270  1
  Li  Li30  1  0.26307062  -0.07560323  0.59919270  1
  Li  Li31  1  0.23692938  1.07560323  1.09919270  1
  Li  Li32  1  0.85637493  0.54990621  0.46393397  1
  Li  Li33  1  0.64362507  0.45009379  0.96393397  1
  Li  Li34  1  0.14362507  0.04990621  0.53606603  1
  Li  Li35  1  0.35637493  0.95009379  0.03606603  1
  Li  Li36  1  0.14362507  0.45009379  0.53606603  1
  Li  Li37  1  0.35637493  0.54990621  0.03606603  1
  Li  Li38  1  0.85637493  0.95009379  0.46393397  1
  Li  Li39  1  0.64362507  0.04990621  0.96393397  1
  Li  Li40  1  0.18873716  0.91966905  0.37462675  1
  Li  Li41  1  0.31126284  0.08033095  0.87462675  1
  Li  Li42  1  0.81126284  0.41966905  0.62537325  1
  Li  Li43  1  0.68873716  0.58033095  0.12537325  1
  Li  Li44  1  0.81126284  0.08033095  0.62537325  1
  Li  Li45  1  0.68873716  0.91966905  0.12537325  1
  Li  Li46  1  0.18873716  0.58033095  0.37462675  1
  Li  Li47  1  0.31126284  0.41966905  0.87462675  1
