# generated using pymatgen
data_Li2MoP3Se
_symmetry_space_group_name_H-M   'P 1'
_cell_length_a   5.93315058
_cell_length_b   6.29823166
_cell_length_c   7.29105413
_cell_angle_alpha   92.59984705
_cell_angle_beta   96.02196648
_cell_angle_gamma   100.87728015
_symmetry_Int_Tables_number   1
_chemical_formula_structural   Li2MoP3Se
_chemical_formula_sum   'Li2 Mo1 P3 Se1'
_cell_volume   265.49036397
_cell_formula_units_Z   1
loop_
 _symmetry_equiv_pos_site_id
 _symmetry_equiv_pos_as_xyz
  1  'x, y, z'
loop_
 _atom_site_type_symbol
 _atom_site_label
 _atom_site_symmetry_multiplicity
 _atom_site_fract_x
 _atom_site_fract_y
 _atom_site_fract_z
 _atom_site_occupancy
  Se  Se0  1  0.00000000  0.00000000  0.00000000  1
  P  P1  1  0.50000000  0.50000000  0.50000000  1
  P  P2  1  0.25000000  0.25000000  0.25000000  1
  P  P3  1  0.75000000  0.25000000  0.00000000  1
  Mo  Mo4  1  0.25000000  0.75000000  0.50000000  1
  Li  Li5  1  0.22788494  0.67769766  0.04453475  1
  Li  Li6  1  0.76129414  0.93283672  0.92314327  1
