# generated using pymatgen
data_LiYSe2(NF)2
_symmetry_space_group_name_H-M   'P 1'
_cell_length_a   5.33512059
_cell_length_b   4.97386435
_cell_length_c   7.52467081
_cell_angle_alpha   94.77062211
_cell_angle_beta   100.38942316
_cell_angle_gamma   109.16169296
_symmetry_Int_Tables_number   1
_chemical_formula_structural   LiYSe2(NF)2
_chemical_formula_sum   'Li2 Y2 Se4 N4 F4'
_cell_volume   183.33005448
_cell_formula_units_Z   2
loop_
 _symmetry_equiv_pos_site_id
 _symmetry_equiv_pos_as_xyz
  1  'x, y, z'
loop_
 _atom_site_type_symbol
 _atom_site_label
 _atom_site_symmetry_multiplicity
 _atom_site_fract_x
 _atom_site_fract_y
 _atom_site_fract_z
 _atom_site_occupancy
  Se  Se0  1  0.12500000  0.00000000  0.25000000  1
  Se  Se1  1  0.00000000  0.00000000  0.00000000  1
  Se  Se2  1  0.37500000  0.00000000  0.25000000  1
  Se  Se3  1  0.25000000  0.25000000  0.25000000  1
  F  F4  1  0.00000000  0.25000000  0.12500000  1
  F  F5  1  0.94912840  0.37523216  0.36292151  1
  F  F6  1  0.06630489  0.70349484  0.75003387  1
  F  F7  1  0.76701299  0.11147895  0.90492280  1
  N  N8  1  0.02041158  0.56816772  0.71148432  1
  N  N9  1  0.79055913  0.26325037  0.35146414  1
  N  N10  1  0.77725300  0.26675904  0.56615087  1
  N  N11  1  0.41489944  0.33434336  0.91815185  1
  Y  Y12  1  0.77311626  0.43842776  0.98642462  1
  Y  Y13  1  0.56920209  0.37244420  0.76820361  1
  Li  Li14  1  0.91850034  0.44898245  0.53071661  1
  Li  Li15  1  0.08820113  0.14417074  0.05514892  1
