# generated using pymatgen
data_LiF
_symmetry_space_group_name_H-M   'P 1'
_cell_length_a   10.02125317
_cell_length_b   10.02125317
_cell_length_c   7.05360877
_cell_angle_alpha   90.00000000
_cell_angle_beta   90.00000000
_cell_angle_gamma   120.00000000
_symmetry_Int_Tables_number   1
_chemical_formula_structural   LiF
_chemical_formula_sum   'Li27 F27'
_cell_volume   613.45974161
_cell_formula_units_Z   27
loop_
 _symmetry_equiv_pos_site_id
 _symmetry_equiv_pos_as_xyz
  1  'x, y, z'
loop_
 _atom_site_type_symbol
 _atom_site_label
 _atom_site_symmetry_multiplicity
 _atom_site_fract_x
 _atom_site_fract_y
 _atom_site_fract_z
 _atom_site_occupancy
  F  F0  1  0.33333333  0.66666667  0.78933941  1
  F  F1  1  0.33333333  0.66666667  0.21066059  1
  F  F2  1  0.99743839  0.82947260  0.73882392  1
  F  F3  1  0.17052740  0.16796579  0.73882392  1
  F  F4  1  0.83203421  0.00256161  0.73882392  1
  F  F5  1  0.17052740  0.00256161  0.26117608  1
  F  F6  1  0.83203421  0.82947260  0.26117608  1
  F  F7  1  0.99743839  0.16796579  0.26117608  1
  F  F8  1  0.87809135  0.12190865  0.50000000  1
  F  F9  1  0.87809135  0.75618270  0.50000000  1
  F  F10  1  0.24381730  0.12190865  0.50000000  1
  F  F11  1  0.15882876  0.05303911  0.64826932  1
  F  F12  1  0.94696089  0.10578966  0.64826932  1
  F  F13  1  0.89421034  0.84117124  0.64826932  1
  F  F14  1  0.94696089  0.84117124  0.35173068  1
  F  F15  1  0.89421034  0.05303911  0.35173068  1
  F  F16  1  0.15882876  0.10578966  0.35173068  1
  F  F17  1  0.33333333  0.66666667  0.00000000  1
  F  F18  1  0.36846422  0.88114747  0.68888519  1
  F  F19  1  0.11885253  0.48731675  0.68888519  1
  F  F20  1  0.51268325  0.63153578  0.68888519  1
  F  F21  1  0.11885253  0.63153578  0.31111481  1
  F  F22  1  0.51268325  0.88114747  0.31111481  1
  F  F23  1  0.36846422  0.48731675  0.31111481  1
  F  F24  1  0.51957189  0.48042811  0.00000000  1
  F  F25  1  0.51957189  0.03914377  0.00000000  1
  F  F26  1  0.96085623  0.48042811  0.00000000  1
  Li  Li27  1  0.47017428  0.52982572  0.50000000  1
  Li  Li28  1  0.47017428  0.94034856  0.50000000  1
  Li  Li29  1  0.05965144  0.52982572  0.50000000  1
  Li  Li30  1  0.45122210  0.13739801  0.33928237  1
  Li  Li31  1  -0.13739801  0.31382409  0.33928237  1
  Li  Li32  1  -0.31382409  -0.45122210  0.33928237  1
  Li  Li33  1  -0.13739801  -0.45122210  -0.33928237  1
  Li  Li34  1  -0.31382409  0.13739801  -0.33928237  1
  Li  Li35  1  0.45122210  0.31382409  -0.33928237  1
  Li  Li36  1  0.66666667  0.33333333  0.00000000  1
  Li  Li37  1  0.67944864  0.54272110  0.85305994  1
  Li  Li38  1  0.45727890  0.13672754  0.85305994  1
  Li  Li39  1  0.86327246  0.32055136  0.85305994  1
  Li  Li40  1  0.45727890  0.32055136  0.14694006  1
  Li  Li41  1  0.86327246  0.54272110  0.14694006  1
  Li  Li42  1  0.67944864  0.13672754  0.14694006  1
  Li  Li43  1  0.10008049  0.85097807  0.38195580  1
  Li  Li44  1  0.14902193  0.24910242  0.38195580  1
  Li  Li45  1  0.75089758  0.89991951  0.38195580  1
  Li  Li46  1  0.14902193  0.89991951  0.61804420  1
  Li  Li47  1  0.75089758  0.85097807  0.61804420  1
  Li  Li48  1  0.10008049  0.24910242  0.61804420  1
  Li  Li49  1  0.00000000  0.00000000  0.50000000  1
  Li  Li50  1  0.38894852  0.61105148  0.00000000  1
  Li  Li51  1  0.38894852  0.77789705  0.00000000  1
  Li  Li52  1  0.22210295  0.61105148  0.00000000  1
  Li  Li53  1  0.33333333  0.66666667  0.50000000  1
