# generated using pymatgen
data_LiF
_symmetry_space_group_name_H-M   'P 1'
_cell_length_a   8.81095190
_cell_length_b   8.81095190
_cell_length_c   8.47255101
_cell_angle_alpha   90.00000000
_cell_angle_beta   90.00000000
_cell_angle_gamma   120.00000000
_symmetry_Int_Tables_number   1
_chemical_formula_structural   LiF
_chemical_formula_sum   'Li23 F23'
_cell_volume   569.62689264
_cell_formula_units_Z   23
loop_
 _symmetry_equiv_pos_site_id
 _symmetry_equiv_pos_as_xyz
  1  'x, y, z'
loop_
 _atom_site_type_symbol
 _atom_site_label
 _atom_site_symmetry_multiplicity
 _atom_site_fract_x
 _atom_site_fract_y
 _atom_site_fract_z
 _atom_site_occupancy
  F  F0  1  0.33333333  0.66666667  0.73284704  1
  F  F1  1  0.33333333  0.66666667  0.26715296  1
  F  F2  1  0.16455976  0.83544024  0.00000000  1
  F  F3  1  0.16455976  0.32911951  -0.00000000  1
  F  F4  1  0.67088049  0.83544024  -0.00000000  1
  F  F5  1  0.95017699  0.48608433  0.71497918  1
  F  F6  1  0.51391567  0.46409266  0.71497918  1
  F  F7  1  0.53590734  0.04982301  0.71497918  1
  F  F8  1  0.51391567  0.04982301  0.28502082  1
  F  F9  1  0.53590734  0.48608433  0.28502082  1
  F  F10  1  0.95017699  0.46409266  0.28502082  1
  F  F11  1  0.39957393  0.44899225  0.33429509  1
  F  F12  1  0.55100775  0.95058168  0.33429509  1
  F  F13  1  0.04941832  0.60042607  0.33429509  1
  F  F14  1  0.55100775  0.60042607  0.66570491  1
  F  F15  1  0.04941832  0.44899225  0.66570491  1
  F  F16  1  0.39957393  0.95058168  0.66570491  1
  F  F17  1  0.66666667  0.33333333  0.33941743  1
  F  F18  1  0.66666667  0.33333333  0.66058257  1
  F  F19  1  0.69950124  0.30049876  0.50000000  1
  F  F20  1  0.69950124  0.39900248  0.50000000  1
  F  F21  1  0.60099752  0.30049876  0.50000000  1
  F  F22  1  0.00000000  0.00000000  0.50000000  1
  Li  Li23  1  0.90634080  0.55411070  0.42814823  1
  Li  Li24  1  -0.55411070  0.35223011  0.42814823  1
  Li  Li25  1  -0.35223011  -0.90634080  0.42814823  1
  Li  Li26  1  -0.55411070  -0.90634080  -0.42814823  1
  Li  Li27  1  -0.35223011  0.55411070  -0.42814823  1
  Li  Li28  1  0.90634080  0.35223011  -0.42814823  1
  Li  Li29  1  0.66666667  0.33333333  0.10876085  1
  Li  Li30  1  0.66666667  0.33333333  0.89123915  1
  Li  Li31  1  0.00000000  0.00000000  0.77343925  1
  Li  Li32  1  0.00000000  0.00000000  0.22656075  1
  Li  Li33  1  0.08215347  0.61726866  0.84007145  1
  Li  Li34  1  0.38273134  0.46488481  0.84007145  1
  Li  Li35  1  0.53511519  0.91784653  0.84007145  1
  Li  Li36  1  0.38273134  0.91784653  0.15992855  1
  Li  Li37  1  0.53511519  0.61726866  0.15992855  1
  Li  Li38  1  0.08215347  0.46488481  0.15992855  1
  Li  Li39  1  0.84329840  0.15670160  0.50000000  1
  Li  Li40  1  0.84329840  0.68659680  0.50000000  1
  Li  Li41  1  0.31340320  0.15670160  0.50000000  1
  Li  Li42  1  0.53341059  0.46658941  0.00000000  1
  Li  Li43  1  0.53341059  0.06682118  0.00000000  1
  Li  Li44  1  0.93317882  0.46658941  -0.00000000  1
  Li  Li45  1  0.33333333  0.66666667  0.50000000  1
