# generated using pymatgen
data_LiF
_symmetry_space_group_name_H-M   'P 1'
_cell_length_a   4.45073953
_cell_length_b   10.89693364
_cell_length_c   11.63393039
_cell_angle_alpha   90.00000000
_cell_angle_beta   90.00000000
_cell_angle_gamma   90.00000000
_symmetry_Int_Tables_number   1
_chemical_formula_structural   LiF
_chemical_formula_sum   'Li28 F28'
_cell_volume   564.23879806
_cell_formula_units_Z   28
loop_
 _symmetry_equiv_pos_site_id
 _symmetry_equiv_pos_as_xyz
  1  'x, y, z'
loop_
 _atom_site_type_symbol
 _atom_site_label
 _atom_site_symmetry_multiplicity
 _atom_site_fract_x
 _atom_site_fract_y
 _atom_site_fract_z
 _atom_site_occupancy
  F  F0  1  0.00000000  0.00000000  0.00000000  1
  F  F1  1  0.50000000  -0.00000000  0.50000000  1
  F  F2  1  0.00000000  0.50000000  0.00000000  1
  F  F3  1  0.50000000  0.50000000  0.50000000  1
  F  F4  1  0.37037015  0.34533505  0.87681922  1
  F  F5  1  0.12962985  0.65466495  0.37681922  1
  F  F6  1  0.62962985  0.84533505  0.12318078  1
  F  F7  1  0.87037015  0.15466495  0.62318078  1
  F  F8  1  0.62962985  0.65466495  0.12318078  1
  F  F9  1  0.87037015  0.34533505  0.62318078  1
  F  F10  1  0.37037015  0.15466495  0.87681922  1
  F  F11  1  0.12962985  0.84533505  0.37681922  1
  F  F12  1  0.20370423  0.83686200  0.05197731  1
  F  F13  1  0.29629577  0.16313800  0.55197731  1
  F  F14  1  0.79629577  0.33686200  0.94802269  1
  F  F15  1  0.70370423  0.66313800  0.44802269  1
  F  F16  1  0.79629577  0.16313800  0.94802269  1
  F  F17  1  0.70370423  0.83686200  0.44802269  1
  F  F18  1  0.20370423  0.66313800  0.05197731  1
  F  F19  1  0.29629577  0.33686200  0.55197731  1
  F  F20  1  0.56082406  0.25000000  0.79056481  1
  F  F21  1  0.93917594  0.75000000  0.29056481  1
  F  F22  1  0.43917594  0.75000000  0.20943519  1
  F  F23  1  0.06082406  0.25000000  0.70943519  1
  F  F24  1  0.90391474  0.25000000  0.78685448  1
  F  F25  1  0.59608526  0.75000000  0.28685448  1
  F  F26  1  0.09608526  0.75000000  0.21314552  1
  F  F27  1  0.40391474  0.25000000  0.71314552  1
  Li  Li28  1  0.00000000  0.00000000  0.50000000  1
  Li  Li29  1  0.50000000  -0.00000000  -0.00000000  1
  Li  Li30  1  0.00000000  0.50000000  0.50000000  1
  Li  Li31  1  0.50000000  0.50000000  0.00000000  1
  Li  Li32  1  0.08365354  0.25000000  0.30767676  1
  Li  Li33  1  0.41634646  0.75000000  0.80767676  1
  Li  Li34  1  0.91634646  0.75000000  0.69232324  1
  Li  Li35  1  0.58365354  0.25000000  0.19232324  1
  Li  Li36  1  0.51173524  0.46144746  0.59341755  1
  Li  Li37  1  -0.01173524  -0.46144746  1.09341755  1
  Li  Li38  1  -0.51173524  0.96144746  -0.59341755  1
  Li  Li39  1  1.01173524  0.03855254  -0.09341755  1
  Li  Li40  1  -0.51173524  -0.46144746  -0.59341755  1
  Li  Li41  1  1.01173524  0.46144746  -0.09341755  1
  Li  Li42  1  0.51173524  0.03855254  0.59341755  1
  Li  Li43  1  -0.01173524  0.96144746  1.09341755  1
  Li  Li44  1  0.90092095  0.86553587  0.38900172  1
  Li  Li45  1  0.59907905  0.13446413  0.88900172  1
  Li  Li46  1  0.09907905  0.36553587  0.61099828  1
  Li  Li47  1  0.40092095  0.63446413  0.11099828  1
  Li  Li48  1  0.09907905  0.13446413  0.61099828  1
  Li  Li49  1  0.40092095  0.86553587  0.11099828  1
  Li  Li50  1  0.90092095  0.63446413  0.38900172  1
  Li  Li51  1  0.59907905  0.36553587  0.88900172  1
  Li  Li52  1  0.76286698  0.25000000  0.49947992  1
  Li  Li53  1  0.73713302  0.75000000  0.99947992  1
  Li  Li54  1  0.23713302  0.75000000  0.50052008  1
  Li  Li55  1  0.26286698  0.25000000  0.00052008  1
