# generated using pymatgen
data_LiF
_symmetry_space_group_name_H-M   'P 1'
_cell_length_a   9.53845275
_cell_length_b   9.53845275
_cell_length_c   6.20338411
_cell_angle_alpha   90.00000000
_cell_angle_beta   90.00000000
_cell_angle_gamma   90.00000000
_symmetry_Int_Tables_number   1
_chemical_formula_structural   LiF
_chemical_formula_sum   'Li32 F32'
_cell_volume   564.39679451
_cell_formula_units_Z   32
loop_
 _symmetry_equiv_pos_site_id
 _symmetry_equiv_pos_as_xyz
  1  'x, y, z'
loop_
 _atom_site_type_symbol
 _atom_site_label
 _atom_site_symmetry_multiplicity
 _atom_site_fract_x
 _atom_site_fract_y
 _atom_site_fract_z
 _atom_site_occupancy
  F  F0  1  0.74198803  0.16131291  0.83114980  1
  F  F1  1  0.75801197  0.83868709  0.33114980  1
  F  F2  1  0.08868709  0.49198803  0.08114980  1
  F  F3  1  0.41131291  0.50801197  0.58114980  1
  F  F4  1  0.75801197  0.16131291  0.16885020  1
  F  F5  1  0.74198803  0.83868709  0.66885020  1
  F  F6  1  0.41131291  0.49198803  0.91885020  1
  F  F7  1  0.08868709  0.50801197  0.41885020  1
  F  F8  1  0.25801197  0.83868709  0.16885020  1
  F  F9  1  0.24198803  0.16131291  0.66885020  1
  F  F10  1  0.91131291  0.50801197  0.91885020  1
  F  F11  1  0.58868709  0.49198803  0.41885020  1
  F  F12  1  0.24198803  0.83868709  0.83114980  1
  F  F13  1  0.25801197  0.16131291  0.33114980  1
  F  F14  1  0.58868709  0.50801197  0.08114980  1
  F  F15  1  0.91131291  0.49198803  0.58114980  1
  F  F16  1  0.24198803  0.66131291  0.33114980  1
  F  F17  1  0.25801197  0.33868709  0.83114980  1
  F  F18  1  0.58868709  0.99198803  0.58114980  1
  F  F19  1  0.91131291  0.00801197  0.08114980  1
  F  F20  1  0.25801197  0.66131291  0.66885020  1
  F  F21  1  0.24198803  0.33868709  0.16885020  1
  F  F22  1  0.91131291  0.99198803  0.41885020  1
  F  F23  1  0.58868709  0.00801197  0.91885020  1
  F  F24  1  0.75801197  0.33868709  0.66885020  1
  F  F25  1  0.74198803  0.66131291  0.16885020  1
  F  F26  1  0.41131291  0.00801197  0.41885020  1
  F  F27  1  0.08868709  0.99198803  0.91885020  1
  F  F28  1  0.74198803  0.33868709  0.33114980  1
  F  F29  1  0.75801197  0.66131291  0.83114980  1
  F  F30  1  0.08868709  0.00801197  0.58114980  1
  F  F31  1  0.41131291  0.99198803  0.08114980  1
  Li  Li32  1  0.64312392  0.13079582  0.21476092  1
  Li  Li33  1  -0.14312392  -0.13079582  0.71476092  1
  Li  Li34  1  0.11920418  1.39312392  0.46476092  1
  Li  Li35  1  0.38079582  -0.39312392  0.96476092  1
  Li  Li36  1  -0.14312392  0.13079582  -0.21476092  1
  Li  Li37  1  0.64312392  -0.13079582  0.28523908  1
  Li  Li38  1  0.38079582  1.39312392  0.53523908  1
  Li  Li39  1  0.11920418  -0.39312392  0.03523908  1
  Li  Li40  1  -0.64312392  -0.13079582  -0.21476092  1
  Li  Li41  1  1.14312392  0.13079582  0.28523908  1
  Li  Li42  1  0.88079582  -0.39312392  0.53523908  1
  Li  Li43  1  0.61920418  1.39312392  0.03523908  1
  Li  Li44  1  1.14312392  -0.13079582  0.21476092  1
  Li  Li45  1  -0.64312392  0.13079582  0.71476092  1
  Li  Li46  1  0.61920418  -0.39312392  0.46476092  1
  Li  Li47  1  0.88079582  1.39312392  0.96476092  1
  Li  Li48  1  1.14312392  0.63079582  0.71476092  1
  Li  Li49  1  0.35687608  0.36920418  1.21476092  1
  Li  Li50  1  0.61920418  1.89312392  0.96476092  1
  Li  Li51  1  0.88079582  0.10687608  1.46476092  1
  Li  Li52  1  0.35687608  0.63079582  0.28523908  1
  Li  Li53  1  1.14312392  0.36920418  0.78523908  1
  Li  Li54  1  0.88079582  1.89312392  1.03523908  1
  Li  Li55  1  0.61920418  0.10687608  0.53523908  1
  Li  Li56  1  -0.14312392  0.36920418  0.28523908  1
  Li  Li57  1  1.64312392  0.63079582  0.78523908  1
  Li  Li58  1  1.38079582  0.10687608  1.03523908  1
  Li  Li59  1  1.11920418  1.89312392  0.53523908  1
  Li  Li60  1  1.64312392  0.36920418  0.71476092  1
  Li  Li61  1  -0.14312392  0.63079582  1.21476092  1
  Li  Li62  1  1.11920418  0.10687608  0.96476092  1
  Li  Li63  1  1.38079582  1.89312392  1.46476092  1
