# generated using pymatgen
data_LiF
_symmetry_space_group_name_H-M   'P 1'
_cell_length_a   6.56167728
_cell_length_b   6.56167728
_cell_length_c   9.74339373
_cell_angle_alpha   90.00000000
_cell_angle_beta   90.00000000
_cell_angle_gamma   120.00000000
_symmetry_Int_Tables_number   1
_chemical_formula_structural   LiF
_chemical_formula_sum   'Li17 F17'
_cell_volume   363.30436706
_cell_formula_units_Z   17
loop_
 _symmetry_equiv_pos_site_id
 _symmetry_equiv_pos_as_xyz
  1  'x, y, z'
loop_
 _atom_site_type_symbol
 _atom_site_label
 _atom_site_symmetry_multiplicity
 _atom_site_fract_x
 _atom_site_fract_y
 _atom_site_fract_z
 _atom_site_occupancy
  F  F0  1  0.33333333  0.66666667  0.00000000  1
  F  F1  1  0.59557965  0.10664648  0.32626406  1
  F  F2  1  0.89335352  0.48893317  0.32626406  1
  F  F3  1  0.51106683  0.40442035  0.32626406  1
  F  F4  1  0.89335352  0.40442035  0.67373594  1
  F  F5  1  0.51106683  0.10664648  0.67373594  1
  F  F6  1  0.59557965  0.48893317  0.67373594  1
  F  F7  1  0.33333333  0.66666667  0.50000000  1
  F  F8  1  0.24489415  0.36160971  0.14500649  1
  F  F9  1  0.63839029  0.88328444  0.14500649  1
  F  F10  1  0.11671556  0.75510585  0.14500649  1
  F  F11  1  0.63839029  0.75510585  0.85499351  1
  F  F12  1  0.11671556  0.36160971  0.85499351  1
  F  F13  1  0.24489415  0.88328444  0.85499351  1
  F  F14  1  0.40833395  0.59166605  0.00000000  1
  F  F15  1  0.40833395  0.81666791  -0.00000000  1
  F  F16  1  0.18333209  0.59166605  0.00000000  1
  Li  Li17  1  0.66666667  0.33333333  -0.00000000  1
  Li  Li18  1  0.41963520  0.92123919  0.87881276  1
  Li  Li19  1  -0.92123919  -0.50160399  0.87881276  1
  Li  Li20  1  0.50160399  -0.41963520  0.87881276  1
  Li  Li21  1  -0.92123919  -0.41963520  -0.87881276  1
  Li  Li22  1  0.50160399  0.92123919  -0.87881276  1
  Li  Li23  1  0.41963520  -0.50160399  -0.87881276  1
  Li  Li24  1  0.66666667  0.33333333  0.50000000  1
  Li  Li25  1  0.00000000  0.00000000  0.00000000  1
  Li  Li26  1  0.90027089  0.49315544  0.55939753  1
  Li  Li27  1  0.50684456  0.40711545  0.55939753  1
  Li  Li28  1  0.59288455  0.09972911  0.55939753  1
  Li  Li29  1  0.50684456  0.09972911  0.44060247  1
  Li  Li30  1  0.59288455  0.49315544  0.44060247  1
  Li  Li31  1  0.90027089  0.40711545  0.44060247  1
  Li  Li32  1  0.33333333  0.66666667  0.11195373  1
  Li  Li33  1  0.33333333  0.66666667  0.88804627  1
