# generated using pymatgen
data_Li2Y2MoP3Se
_symmetry_space_group_name_H-M   'P 1'
_cell_length_a   5.20704427
_cell_length_b   5.44885113
_cell_length_c   6.86425514
_cell_angle_alpha   93.60415347
_cell_angle_beta   97.96184262
_cell_angle_gamma   103.50034109
_symmetry_Int_Tables_number   1
_chemical_formula_structural   Li2Y2MoP3Se
_chemical_formula_sum   'Li2 Y2 Mo1 P3 Se1'
_cell_volume   186.62992797
_cell_formula_units_Z   1
loop_
 _symmetry_equiv_pos_site_id
 _symmetry_equiv_pos_as_xyz
  1  'x, y, z'
loop_
 _atom_site_type_symbol
 _atom_site_label
 _atom_site_symmetry_multiplicity
 _atom_site_fract_x
 _atom_site_fract_y
 _atom_site_fract_z
 _atom_site_occupancy
  Se  Se0  1  0.00000000  0.00000000  0.00000000  1
  P  P1  1  0.50000000  0.50000000  0.50000000  1
  P  P2  1  0.50000000  0.50000000  0.00000000  1
  P  P3  1  0.50000000  0.00000000  0.50000000  1
  Mo  Mo4  1  0.00000000  0.50000000  0.50000000  1
  Li  Li5  1  0.73119871  0.91374214  0.30008440  1
  Li  Li6  1  0.12547619  0.47584184  0.82410254  1
  Y  Y7  1  0.27832761  0.68256357  0.36133906  1
  Y  Y8  1  0.37015269  0.26449597  0.17072485  1
