# generated using pymatgen
data_LiY2Cu3PSe
_symmetry_space_group_name_H-M   'P 1'
_cell_length_a   4.45849552
_cell_length_b   4.59627350
_cell_length_c   6.39842824
_cell_angle_alpha   95.33012227
_cell_angle_beta   100.18163786
_cell_angle_gamma   109.17222907
_symmetry_Int_Tables_number   1
_chemical_formula_structural   LiY2Cu3PSe
_chemical_formula_sum   'Li1 Y2 Cu3 P1 Se1'
_cell_volume   120.27927483
_cell_formula_units_Z   1
loop_
 _symmetry_equiv_pos_site_id
 _symmetry_equiv_pos_as_xyz
  1  'x, y, z'
loop_
 _atom_site_type_symbol
 _atom_site_label
 _atom_site_symmetry_multiplicity
 _atom_site_fract_x
 _atom_site_fract_y
 _atom_site_fract_z
 _atom_site_occupancy
  P  P0  1  0.00000000  0.00000000  0.00000000  1
  Se  Se1  1  0.50000000  0.50000000  0.50000000  1
  Li  Li2  1  0.25000000  0.25000000  0.25000000  1
  Y  Y3  1  0.75000000  0.25000000  0.00000000  1
  Y  Y4  1  0.25000000  0.75000000  0.50000000  1
  Cu  Cu5  1  0.31095253  0.02384025  0.81345285  1
  Cu  Cu6  1  0.78444524  0.42448640  0.64688667  1
  Cu  Cu7  1  0.33486997  0.63491614  0.13997655  1
