# generated using pymatgen
data_LiYAs2PSe
_symmetry_space_group_name_H-M   'P 1'
_cell_length_a   5.20931234
_cell_length_b   5.37003697
_cell_length_c   6.90882527
_cell_angle_alpha   94.24061061
_cell_angle_beta   98.64905619
_cell_angle_gamma   106.11366851
_symmetry_Int_Tables_number   1
_chemical_formula_structural   LiYAs2PSe
_chemical_formula_sum   'Li2 Y2 As4 P2 Se2'
_cell_volume   182.19772817
_cell_formula_units_Z   2
loop_
 _symmetry_equiv_pos_site_id
 _symmetry_equiv_pos_as_xyz
  1  'x, y, z'
loop_
 _atom_site_type_symbol
 _atom_site_label
 _atom_site_symmetry_multiplicity
 _atom_site_fract_x
 _atom_site_fract_y
 _atom_site_fract_z
 _atom_site_occupancy
  Se  Se0  1  0.00000000  0.00000000  0.00000000  1
  Se  Se1  1  0.50000000  0.50000000  0.50000000  1
  Y  Y2  1  0.50000000  0.50000000  0.00000000  1
  Y  Y3  1  0.50000000  0.00000000  0.50000000  1
  P  P4  1  0.00000000  0.50000000  0.50000000  1
  P  P5  1  0.07455190  0.40830649  0.15717189  1
  As  As6  1  0.53664999  0.80541449  0.17716382  1
  As  As7  1  0.93783850  0.92525756  0.17519088  1
  As  As8  1  0.49474246  0.06596897  0.20486072  1
  As  As9  1  0.82183607  0.22788794  0.99377086  1
  Li  Li10  1  0.85887563  0.22663748  0.65151595  1
  Li  Li11  1  0.86600381  0.96379260  0.67429802  1
