# generated using pymatgen
data_LiF
_symmetry_space_group_name_H-M   'P 1'
_cell_length_a   7.34875185
_cell_length_b   11.80163121
_cell_length_c   5.76487037
_cell_angle_alpha   90.00000000
_cell_angle_beta   90.00000000
_cell_angle_gamma   90.00000000
_symmetry_Int_Tables_number   1
_chemical_formula_structural   LiF
_chemical_formula_sum   'Li16 F16'
_cell_volume   499.97140651
_cell_formula_units_Z   16
loop_
 _symmetry_equiv_pos_site_id
 _symmetry_equiv_pos_as_xyz
  1  'x, y, z'
loop_
 _atom_site_type_symbol
 _atom_site_label
 _atom_site_symmetry_multiplicity
 _atom_site_fract_x
 _atom_site_fract_y
 _atom_site_fract_z
 _atom_site_occupancy
  F  F0  1  0.47564418  0.31791165  0.94465826  1
  F  F1  1  -0.47564418  -0.31791165  0.94465826  1
  F  F2  1  0.02435582  0.81791165  -0.94465826  1
  F  F3  1  0.97564418  0.18208835  -0.94465826  1
  F  F4  1  -0.47564418  -0.31791165  -0.94465826  1
  F  F5  1  0.47564418  0.31791165  -0.94465826  1
  F  F6  1  0.97564418  0.18208835  0.94465826  1
  F  F7  1  0.02435582  0.81791165  0.94465826  1
  F  F8  1  0.33638141  0.08682008  0.50000000  1
  F  F9  1  0.66361859  0.91317992  0.50000000  1
  F  F10  1  0.16361859  0.58682008  0.50000000  1
  F  F11  1  0.83638141  0.41317992  0.50000000  1
  F  F12  1  0.00000000  0.50000000  0.50000000  1
  F  F13  1  0.50000000  0.00000000  0.50000000  1
  F  F14  1  0.00000000  0.00000000  0.50000000  1
  F  F15  1  0.50000000  0.50000000  0.50000000  1
  Li  Li16  1  0.71353230  0.75661455  0.33051114  1
  Li  Li17  1  0.28646770  0.24338545  0.33051114  1
  Li  Li18  1  0.78646770  0.25661455  0.66948886  1
  Li  Li19  1  0.21353230  0.74338545  0.66948886  1
  Li  Li20  1  0.28646770  0.24338545  0.66948886  1
  Li  Li21  1  0.71353230  0.75661455  0.66948886  1
  Li  Li22  1  0.21353230  0.74338545  0.33051114  1
  Li  Li23  1  0.78646770  0.25661455  0.33051114  1
  Li  Li24  1  0.86486573  0.94580580  0.50000000  1
  Li  Li25  1  0.13513427  0.05419420  0.50000000  1
  Li  Li26  1  0.63513427  0.44580580  0.50000000  1
  Li  Li27  1  0.36486573  0.55419420  0.50000000  1
  Li  Li28  1  0.72156090  0.92978564  -0.00000000  1
  Li  Li29  1  0.27843910  0.07021436  0.00000000  1
  Li  Li30  1  0.77843910  0.42978564  0.00000000  1
  Li  Li31  1  0.22156090  0.57021436  0.00000000  1
