# generated using pymatgen
data_Li5Y2Al(P2Se)2
_symmetry_space_group_name_H-M   'P 1'
_cell_length_a   6.72614773
_cell_length_b   7.18148557
_cell_length_c   7.65722936
_cell_angle_alpha   91.60270399
_cell_angle_beta   92.33921881
_cell_angle_gamma   90.84327078
_symmetry_Int_Tables_number   1
_chemical_formula_structural   Li5Y2Al(P2Se)2
_chemical_formula_sum   'Li5 Y2 Al1 P4 Se2'
_cell_volume   369.37339589
_cell_formula_units_Z   1
loop_
 _symmetry_equiv_pos_site_id
 _symmetry_equiv_pos_as_xyz
  1  'x, y, z'
loop_
 _atom_site_type_symbol
 _atom_site_label
 _atom_site_symmetry_multiplicity
 _atom_site_fract_x
 _atom_site_fract_y
 _atom_site_fract_z
 _atom_site_occupancy
  Al  Al0  1  0.12500000  0.00000000  0.25000000  1
  Se  Se1  1  0.00000000  0.00000000  0.00000000  1
  Se  Se2  1  0.37500000  0.00000000  0.25000000  1
  Y  Y3  1  0.25000000  0.25000000  0.25000000  1
  Y  Y4  1  0.00000000  0.25000000  0.12500000  1
  P  P5  1  0.81453094  0.61564504  0.21542664  1
  P  P6  1  0.35071360  0.32925631  0.73758516  1
  P  P7  1  0.36171144  0.39554389  0.30476154  1
  P  P8  1  0.06816910  0.43389355  0.76296735  1
  Li  Li9  1  0.09040117  0.70024563  0.46495203  1
  Li  Li10  1  0.67937588  0.90865661  0.68205638  1
  Li  Li11  1  0.63085075  0.93704744  0.72056159  1
  Li  Li12  1  0.96635145  0.51419385  0.13259736  1
  Li  Li13  1  0.11582146  0.66442201  0.00951913  1
