# generated using pymatgen
data_LiSbP
_symmetry_space_group_name_H-M   'P 1'
_cell_length_a   4.30923621
_cell_length_b   4.45130840
_cell_length_c   6.84977786
_cell_angle_alpha   95.94174279
_cell_angle_beta   102.93988054
_cell_angle_gamma   113.86561929
_symmetry_Int_Tables_number   1
_chemical_formula_structural   LiSbP
_chemical_formula_sum   'Li2 Sb2 P2'
_cell_volume   114.29381976
_cell_formula_units_Z   2
loop_
 _symmetry_equiv_pos_site_id
 _symmetry_equiv_pos_as_xyz
  1  'x, y, z'
loop_
 _atom_site_type_symbol
 _atom_site_label
 _atom_site_symmetry_multiplicity
 _atom_site_fract_x
 _atom_site_fract_y
 _atom_site_fract_z
 _atom_site_occupancy
  P  P0  1  0.12500000  0.12500000  0.12500000  1
  P  P1  1  0.50000000  0.50000000  0.50000000  1
  Li  Li2  1  0.25000000  0.25000000  0.25000000  1
  Li  Li3  1  0.75000000  0.75000000  0.75000000  1
  Sb  Sb4  1  0.85253894  0.32824661  0.78630364  1
  Sb  Sb5  1  0.89330767  0.60126351  0.94887434  1
