# generated using pymatgen
data_Li2Y2AlF6
_symmetry_space_group_name_H-M   'P 1'
_cell_length_a   5.91100365
_cell_length_b   5.54902438
_cell_length_c   7.25574852
_cell_angle_alpha   94.56855639
_cell_angle_beta   95.57081547
_cell_angle_gamma   98.41120952
_symmetry_Int_Tables_number   1
_chemical_formula_structural   Li2Y2AlF6
_chemical_formula_sum   'Li2 Y2 Al1 F6'
_cell_volume   233.25193039
_cell_formula_units_Z   1
loop_
 _symmetry_equiv_pos_site_id
 _symmetry_equiv_pos_as_xyz
  1  'x, y, z'
loop_
 _atom_site_type_symbol
 _atom_site_label
 _atom_site_symmetry_multiplicity
 _atom_site_fract_x
 _atom_site_fract_y
 _atom_site_fract_z
 _atom_site_occupancy
  Al  Al0  1  0.00000000  0.00000000  0.00000000  1
  F  F1  1  0.50000000  0.50000000  0.50000000  1
  F  F2  1  0.50000000  0.50000000  0.00000000  1
  F  F3  1  0.50000000  0.00000000  0.50000000  1
  F  F4  1  0.00000000  0.50000000  0.50000000  1
  F  F5  1  0.55004761  0.46875353  0.89691253  1
  F  F6  1  0.62187330  0.70738140  0.19745714  1
  Y  Y7  1  0.52110983  0.34601648  0.16864100  1
  Y  Y8  1  0.04954553  0.46886345  0.40115938  1
  Li  Li9  1  0.72234735  0.06943955  0.08725041  1
  Li  Li10  1  0.45557188  0.18949551  0.04484900  1
