# generated using pymatgen
data_Li2TiAlOF
_symmetry_space_group_name_H-M   'P 1'
_cell_length_a   3.14119252
_cell_length_b   3.14388509
_cell_length_c   6.58684750
_cell_angle_alpha   107.65435435
_cell_angle_beta   109.72718218
_cell_angle_gamma   110.28689200
_symmetry_Int_Tables_number   1
_chemical_formula_structural   Li2TiAlOF
_chemical_formula_sum   'Li2 Ti1 Al1 O1 F1'
_cell_volume   50.50768151
_cell_formula_units_Z   1
loop_
 _symmetry_equiv_pos_site_id
 _symmetry_equiv_pos_as_xyz
  1  'x, y, z'
loop_
 _atom_site_type_symbol
 _atom_site_label
 _atom_site_symmetry_multiplicity
 _atom_site_fract_x
 _atom_site_fract_y
 _atom_site_fract_z
 _atom_site_occupancy
  F  F0  1  0.00000000  0.00000000  0.00000000  1
  Al  Al1  1  0.50000000  0.50000000  0.50000000  1
  Li  Li2  1  0.50000000  0.50000000  0.00000000  1
  Li  Li3  1  0.50000000  0.00000000  0.50000000  1
  O  O4  1  0.00000000  0.50000000  0.50000000  1
  Ti  Ti5  1  0.83656051  0.52040810  0.85752559  1
