# generated using pymatgen
data_Li2Y2Mo2P2Se
_symmetry_space_group_name_H-M   'P 1'
_cell_length_a   4.78238080
_cell_length_b   5.05246309
_cell_length_c   6.36374784
_cell_angle_alpha   93.33436371
_cell_angle_beta   97.36903733
_cell_angle_gamma   103.24249269
_symmetry_Int_Tables_number   1
_chemical_formula_structural   Li2Y2Mo2P2Se
_chemical_formula_sum   'Li2 Y2 Mo2 P2 Se1'
_cell_volume   147.82937367
_cell_formula_units_Z   1
loop_
 _symmetry_equiv_pos_site_id
 _symmetry_equiv_pos_as_xyz
  1  'x, y, z'
loop_
 _atom_site_type_symbol
 _atom_site_label
 _atom_site_symmetry_multiplicity
 _atom_site_fract_x
 _atom_site_fract_y
 _atom_site_fract_z
 _atom_site_occupancy
  Se  Se0  1  0.12500000  0.00000000  0.25000000  1
  Y  Y1  1  0.00000000  0.00000000  0.00000000  1
  Y  Y2  1  0.37500000  0.00000000  0.25000000  1
  P  P3  1  0.25000000  0.25000000  0.25000000  1
  P  P4  1  0.00000000  0.25000000  0.12500000  1
  Mo  Mo5  1  0.52605176  0.55846043  0.41635904  1
  Mo  Mo6  1  0.09839582  0.61958550  0.98391788  1
  Li  Li7  1  0.88512398  0.32818942  0.36795905  1
  Li  Li8  1  0.92607700  0.70282683  0.94304068  1
