# generated using pymatgen
data_LiF
_symmetry_space_group_name_H-M   'P 1'
_cell_length_a   8.36795063
_cell_length_b   13.45563481
_cell_length_c   5.86563084
_cell_angle_alpha   90.00000000
_cell_angle_beta   90.00000000
_cell_angle_gamma   90.00000000
_symmetry_Int_Tables_number   1
_chemical_formula_structural   LiF
_chemical_formula_sum   'Li24 F24'
_cell_volume   660.44708411
_cell_formula_units_Z   24
loop_
 _symmetry_equiv_pos_site_id
 _symmetry_equiv_pos_as_xyz
  1  'x, y, z'
loop_
 _atom_site_type_symbol
 _atom_site_label
 _atom_site_symmetry_multiplicity
 _atom_site_fract_x
 _atom_site_fract_y
 _atom_site_fract_z
 _atom_site_occupancy
  F  F0  1  0.91010630  0.69951586  0.24038161  1
  F  F1  1  0.58989370  0.30048414  0.74038161  1
  F  F2  1  0.08989370  0.19951586  0.75961839  1
  F  F3  1  0.41010630  0.80048414  0.25961839  1
  F  F4  1  0.08989370  0.30048414  0.75961839  1
  F  F5  1  0.41010630  0.69951586  0.25961839  1
  F  F6  1  0.91010630  0.80048414  0.24038161  1
  F  F7  1  0.58989370  0.19951586  0.74038161  1
  F  F8  1  0.90765058  0.51783885  0.08882621  1
  F  F9  1  0.59234942  0.48216115  0.58882621  1
  F  F10  1  0.09234942  0.01783885  0.91117379  1
  F  F11  1  0.40765058  0.98216115  0.41117379  1
  F  F12  1  0.09234942  0.48216115  0.91117379  1
  F  F13  1  0.40765058  0.51783885  0.41117379  1
  F  F14  1  0.90765058  0.98216115  0.08882621  1
  F  F15  1  0.59234942  0.01783885  0.58882621  1
  F  F16  1  0.46159695  0.84874151  0.31307055  1
  F  F17  1  0.03840305  0.15125849  0.81307055  1
  F  F18  1  0.53840305  0.34874151  0.68692945  1
  F  F19  1  0.96159695  0.65125849  0.18692945  1
  F  F20  1  0.53840305  0.15125849  0.68692945  1
  F  F21  1  0.96159695  0.84874151  0.18692945  1
  F  F22  1  0.46159695  0.65125849  0.31307055  1
  F  F23  1  0.03840305  0.34874151  0.81307055  1
  Li  Li24  1  0.45653154  0.52347114  0.77703933  1
  Li  Li25  1  0.04346846  -0.52347114  1.27703933  1
  Li  Li26  1  -0.45653154  1.02347114  -0.77703933  1
  Li  Li27  1  0.95653154  -0.02347114  -0.27703933  1
  Li  Li28  1  -0.45653154  -0.52347114  -0.77703933  1
  Li  Li29  1  0.95653154  0.52347114  -0.27703933  1
  Li  Li30  1  0.45653154  -0.02347114  0.77703933  1
  Li  Li31  1  0.04346846  1.02347114  1.27703933  1
  Li  Li32  1  0.40500111  0.41437974  0.76316169  1
  Li  Li33  1  0.09499889  0.58562026  0.26316169  1
  Li  Li34  1  0.59499889  0.91437974  0.23683831  1
  Li  Li35  1  0.90500111  0.08562026  0.73683831  1
  Li  Li36  1  0.59499889  0.58562026  0.23683831  1
  Li  Li37  1  0.90500111  0.41437974  0.73683831  1
  Li  Li38  1  0.40500111  0.08562026  0.76316169  1
  Li  Li39  1  0.09499889  0.91437974  0.26316169  1
  Li  Li40  1  0.91841927  0.25000000  0.79728280  1
  Li  Li41  1  0.58158073  0.75000000  0.29728280  1
  Li  Li42  1  0.08158073  0.75000000  0.20271720  1
  Li  Li43  1  0.41841927  0.25000000  0.70271720  1
  Li  Li44  1  0.00000000  0.00000000  0.50000000  1
  Li  Li45  1  0.50000000  -0.00000000  0.00000000  1
  Li  Li46  1  0.00000000  0.50000000  0.50000000  1
  Li  Li47  1  0.50000000  0.50000000  0.00000000  1
