# generated using pymatgen
data_Li2YPb2(SeF)2
_symmetry_space_group_name_H-M   'P 1'
_cell_length_a   8.75472089
_cell_length_b   8.35078596
_cell_length_c   9.13680138
_cell_angle_alpha   91.67839786
_cell_angle_beta   93.65520160
_cell_angle_gamma   96.74145713
_symmetry_Int_Tables_number   1
_chemical_formula_structural   Li2YPb2(SeF)2
_chemical_formula_sum   'Li2 Y1 Pb2 Se2 F2'
_cell_volume   661.55684607
_cell_formula_units_Z   1
loop_
 _symmetry_equiv_pos_site_id
 _symmetry_equiv_pos_as_xyz
  1  'x, y, z'
loop_
 _atom_site_type_symbol
 _atom_site_label
 _atom_site_symmetry_multiplicity
 _atom_site_fract_x
 _atom_site_fract_y
 _atom_site_fract_z
 _atom_site_occupancy
  Pb  Pb0  1  0.00000000  0.00000000  0.00000000  1
  Pb  Pb1  1  0.50000000  0.50000000  0.50000000  1
  Se  Se2  1  0.50000000  0.50000000  0.00000000  1
  Se  Se3  1  0.50000000  0.00000000  0.50000000  1
  F  F4  1  0.00000000  0.50000000  0.50000000  1
  F  F5  1  0.62578959  0.78847890  0.55579463  1
  Y  Y6  1  0.76906765  0.87741750  0.09331542  1
  Li  Li7  1  0.67754942  0.33205468  0.33540237  1
  Li  Li8  1  0.70830591  0.69669421  0.16181120  1
