# generated using pymatgen
data_LiF
_symmetry_space_group_name_H-M   'P 1'
_cell_length_a   7.20825500
_cell_length_b   7.94488434
_cell_length_c   9.55198455
_cell_angle_alpha   90.00000000
_cell_angle_beta   90.00000000
_cell_angle_gamma   90.00000000
_symmetry_Int_Tables_number   1
_chemical_formula_structural   LiF
_chemical_formula_sum   'Li22 F22'
_cell_volume   547.03023676
_cell_formula_units_Z   22
loop_
 _symmetry_equiv_pos_site_id
 _symmetry_equiv_pos_as_xyz
  1  'x, y, z'
loop_
 _atom_site_type_symbol
 _atom_site_label
 _atom_site_symmetry_multiplicity
 _atom_site_fract_x
 _atom_site_fract_y
 _atom_site_fract_z
 _atom_site_occupancy
  F  F0  1  0.00000000  0.00000000  0.22562284  1
  F  F1  1  0.50000000  0.50000000  0.77437716  1
  F  F2  1  0.00000000  0.00000000  0.77437716  1
  F  F3  1  0.50000000  0.50000000  0.22562284  1
  F  F4  1  0.00865704  0.70958459  0.43247825  1
  F  F5  1  0.99134296  0.29041541  0.43247825  1
  F  F6  1  0.49134296  0.20958459  0.56752175  1
  F  F7  1  0.50865704  0.79041541  0.56752175  1
  F  F8  1  0.99134296  0.29041541  0.56752175  1
  F  F9  1  0.00865704  0.70958459  0.56752175  1
  F  F10  1  0.50865704  0.79041541  0.43247825  1
  F  F11  1  0.49134296  0.20958459  0.43247825  1
  F  F12  1  0.24442873  0.37300151  0.77427765  1
  F  F13  1  0.75557127  0.62699849  0.77427765  1
  F  F14  1  0.25557127  0.87300151  0.22572235  1
  F  F15  1  0.74442873  0.12699849  0.22572235  1
  F  F16  1  0.75557127  0.62699849  0.22572235  1
  F  F17  1  0.24442873  0.37300151  0.22572235  1
  F  F18  1  0.74442873  0.12699849  0.77427765  1
  F  F19  1  0.25557127  0.87300151  0.77427765  1
  F  F20  1  0.00000000  0.00000000  0.00000000  1
  F  F21  1  0.50000000  0.50000000  -0.00000000  1
  Li  Li22  1  0.88254267  0.77208708  0.13032966  1
  Li  Li23  1  -0.88254267  -0.77208708  0.13032966  1
  Li  Li24  1  -0.38254267  1.27208708  -0.13032966  1
  Li  Li25  1  1.38254267  -0.27208708  -0.13032966  1
  Li  Li26  1  -0.88254267  -0.77208708  -0.13032966  1
  Li  Li27  1  0.88254267  0.77208708  -0.13032966  1
  Li  Li28  1  1.38254267  -0.27208708  0.13032966  1
  Li  Li29  1  -0.38254267  1.27208708  0.13032966  1
  Li  Li30  1  0.90505007  0.24544440  0.75078710  1
  Li  Li31  1  0.09494993  0.75455560  0.75078710  1
  Li  Li32  1  0.59494993  0.74544440  0.24921290  1
  Li  Li33  1  0.40505007  0.25455560  0.24921290  1
  Li  Li34  1  0.09494993  0.75455560  0.24921290  1
  Li  Li35  1  0.90505007  0.24544440  0.24921290  1
  Li  Li36  1  0.40505007  0.25455560  0.75078710  1
  Li  Li37  1  0.59494993  0.74544440  0.75078710  1
  Li  Li38  1  0.00000000  0.00000000  0.34851893  1
  Li  Li39  1  0.50000000  0.50000000  0.65148107  1
  Li  Li40  1  0.00000000  0.00000000  0.65148107  1
  Li  Li41  1  0.50000000  0.50000000  0.34851893  1
  Li  Li42  1  0.00000000  0.50000000  0.50000000  1
  Li  Li43  1  0.50000000  0.00000000  0.50000000  1
