# generated using pymatgen
data_LiY2MoP3Se
_symmetry_space_group_name_H-M   'P 1'
_cell_length_a   5.32714984
_cell_length_b   5.52173769
_cell_length_c   7.12594540
_cell_angle_alpha   94.03528095
_cell_angle_beta   97.93107187
_cell_angle_gamma   104.86422500
_symmetry_Int_Tables_number   1
_chemical_formula_structural   LiY2MoP3Se
_chemical_formula_sum   'Li1 Y2 Mo1 P3 Se1'
_cell_volume   199.42988550
_cell_formula_units_Z   1
loop_
 _symmetry_equiv_pos_site_id
 _symmetry_equiv_pos_as_xyz
  1  'x, y, z'
loop_
 _atom_site_type_symbol
 _atom_site_label
 _atom_site_symmetry_multiplicity
 _atom_site_fract_x
 _atom_site_fract_y
 _atom_site_fract_z
 _atom_site_occupancy
  Se  Se0  1  0.12500000  0.00000000  0.25000000  1
  Y  Y1  1  0.00000000  0.00000000  0.00000000  1
  Y  Y2  1  0.37500000  0.00000000  0.25000000  1
  P  P3  1  0.25000000  0.25000000  0.25000000  1
  P  P4  1  0.00000000  0.25000000  0.12500000  1
  P  P5  1  0.33906297  0.31824261  0.72148796  1
  Mo  Mo6  1  0.63336965  0.06179720  0.31766659  1
  Li  Li7  1  0.20156189  0.86062900  0.09632292  1
