# generated using pymatgen
data_Li4TeF2
_symmetry_space_group_name_H-M   'P 1'
_cell_length_a   13.92681131
_cell_length_b   13.92681131
_cell_length_c   17.08638072
_cell_angle_alpha   90.00000000
_cell_angle_beta   90.00000000
_cell_angle_gamma   120.00000000
_symmetry_Int_Tables_number   1
_chemical_formula_structural   Li4TeF2
_chemical_formula_sum   'Li96 Te24 F48'
_cell_volume   2870.01452068
_cell_formula_units_Z   24
loop_
 _symmetry_equiv_pos_site_id
 _symmetry_equiv_pos_as_xyz
  1  'x, y, z'
loop_
 _atom_site_type_symbol
 _atom_site_label
 _atom_site_symmetry_multiplicity
 _atom_site_fract_x
 _atom_site_fract_y
 _atom_site_fract_z
 _atom_site_occupancy
  F  F0  1  0.24914674  0.85880672  0.45667584  1
  F  F1  1  -0.85880672  -0.60965998  0.45667584  1
  F  F2  1  0.60965998  -0.24914674  0.45667584  1
  F  F3  1  0.24914674  0.85880672  -0.45667584  1
  F  F4  1  -0.85880672  -0.60965998  -0.45667584  1
  F  F5  1  0.60965998  -0.24914674  -0.45667584  1
  F  F6  1  0.85880672  0.24914674  -0.45667584  1
  F  F7  1  -0.60965998  -0.85880672  -0.45667584  1
  F  F8  1  -0.24914674  0.60965998  -0.45667584  1
  F  F9  1  0.85880672  0.24914674  0.45667584  1
  F  F10  1  -0.60965998  -0.85880672  0.45667584  1
  F  F11  1  -0.24914674  0.60965998  0.45667584  1
  F  F12  1  0.86813099  0.06440652  0.89097564  1
  F  F13  1  0.93559348  0.80372447  0.89097564  1
  F  F14  1  0.19627553  0.13186901  0.89097564  1
  F  F15  1  0.86813099  0.06440652  0.10902436  1
  F  F16  1  0.93559348  0.80372447  0.10902436  1
  F  F17  1  0.19627553  0.13186901  0.10902436  1
  F  F18  1  0.06440652  0.86813099  0.10902436  1
  F  F19  1  0.80372447  0.93559348  0.10902436  1
  F  F20  1  0.13186901  0.19627553  0.10902436  1
  F  F21  1  0.06440652  0.86813099  0.89097564  1
  F  F22  1  0.80372447  0.93559348  0.89097564  1
  F  F23  1  0.13186901  0.19627553  0.89097564  1
  F  F24  1  0.63325801  0.17761008  0.68318905  1
  F  F25  1  0.82238992  0.45564794  0.68318905  1
  F  F26  1  0.54435206  0.36674199  0.68318905  1
  F  F27  1  0.63325801  0.17761008  0.31681095  1
  F  F28  1  0.82238992  0.45564794  0.31681095  1
  F  F29  1  0.54435206  0.36674199  0.31681095  1
  F  F30  1  0.17761008  0.63325801  0.31681095  1
  F  F31  1  0.45564794  0.82238992  0.31681095  1
  F  F32  1  0.36674199  0.54435206  0.31681095  1
  F  F33  1  0.17761008  0.63325801  0.68318905  1
  F  F34  1  0.45564794  0.82238992  0.68318905  1
  F  F35  1  0.36674199  0.54435206  0.68318905  1
  F  F36  1  0.55627476  0.46994746  0.74330173  1
  F  F37  1  0.53005254  0.08632729  0.74330173  1
  F  F38  1  0.91367271  0.44372524  0.74330173  1
  F  F39  1  0.55627476  0.46994746  0.25669827  1
  F  F40  1  0.53005254  0.08632729  0.25669827  1
  F  F41  1  0.91367271  0.44372524  0.25669827  1
  F  F42  1  0.46994746  0.55627476  0.25669827  1
  F  F43  1  0.08632729  0.53005254  0.25669827  1
  F  F44  1  0.44372524  0.91367271  0.25669827  1
  F  F45  1  0.46994746  0.55627476  0.74330173  1
  F  F46  1  0.08632729  0.53005254  0.74330173  1
  F  F47  1  0.44372524  0.91367271  0.74330173  1
  Li  Li48  1  0.83582532  0.52629374  0.12261790  1
  Li  Li49  1  0.47370626  0.30953158  0.12261790  1
  Li  Li50  1  0.69046842  0.16417468  0.12261790  1
  Li  Li51  1  0.83582532  0.52629374  0.87738210  1
  Li  Li52  1  0.47370626  0.30953158  0.87738210  1
  Li  Li53  1  0.69046842  0.16417468  0.87738210  1
  Li  Li54  1  0.52629374  0.83582532  0.87738210  1
  Li  Li55  1  0.30953158  0.47370626  0.87738210  1
  Li  Li56  1  0.16417468  0.69046842  0.87738210  1
  Li  Li57  1  0.52629374  0.83582532  0.12261790  1
  Li  Li58  1  0.30953158  0.47370626  0.12261790  1
  Li  Li59  1  0.16417468  0.69046842  0.12261790  1
  Li  Li60  1  0.81132636  0.63503794  0.10135886  1
  Li  Li61  1  0.36496206  0.17628842  0.10135886  1
  Li  Li62  1  0.82371158  0.18867364  0.10135886  1
  Li  Li63  1  0.81132636  0.63503794  0.89864114  1
  Li  Li64  1  0.36496206  0.17628842  0.89864114  1
  Li  Li65  1  0.82371158  0.18867364  0.89864114  1
  Li  Li66  1  0.63503794  0.81132636  0.89864114  1
  Li  Li67  1  0.17628842  0.36496206  0.89864114  1
  Li  Li68  1  0.18867364  0.82371158  0.89864114  1
  Li  Li69  1  0.63503794  0.81132636  0.10135886  1
  Li  Li70  1  0.17628842  0.36496206  0.10135886  1
  Li  Li71  1  0.18867364  0.82371158  0.10135886  1
  Li  Li72  1  0.18478175  0.66867980  0.94613559  1
  Li  Li73  1  0.33132020  0.51610196  0.94613559  1
  Li  Li74  1  0.48389804  0.81521825  0.94613559  1
  Li  Li75  1  0.18478175  0.66867980  0.05386441  1
  Li  Li76  1  0.33132020  0.51610196  0.05386441  1
  Li  Li77  1  0.48389804  0.81521825  0.05386441  1
  Li  Li78  1  0.66867980  0.18478175  0.05386441  1
  Li  Li79  1  0.51610196  0.33132020  0.05386441  1
  Li  Li80  1  0.81521825  0.48389804  0.05386441  1
  Li  Li81  1  0.66867980  0.18478175  0.94613559  1
  Li  Li82  1  0.51610196  0.33132020  0.94613559  1
  Li  Li83  1  0.81521825  0.48389804  0.94613559  1
  Li  Li84  1  0.60194612  -0.00000000  0.59074632  1
  Li  Li85  1  0.00000000  0.60194612  0.59074632  1
  Li  Li86  1  0.39805388  0.39805388  0.59074632  1
  Li  Li87  1  0.60194612  -0.00000000  0.40925368  1
  Li  Li88  1  0.00000000  0.60194612  0.40925368  1
  Li  Li89  1  0.39805388  0.39805388  0.40925368  1
  Li  Li90  1  0.33333333  0.66666667  0.50000000  1
  Li  Li91  1  0.66666667  0.33333333  0.50000000  1
  Li  Li92  1  0.61747649  0.15253000  0.24430059  1
  Li  Li93  1  0.84747000  0.46494649  0.24430059  1
  Li  Li94  1  0.53505351  0.38252351  0.24430059  1
  Li  Li95  1  0.61747649  0.15253000  0.75569941  1
  Li  Li96  1  0.84747000  0.46494649  0.75569941  1
  Li  Li97  1  0.53505351  0.38252351  0.75569941  1
  Li  Li98  1  0.15253000  0.61747649  0.75569941  1
  Li  Li99  1  0.46494649  0.84747000  0.75569941  1
  Li  Li100  1  0.38252351  0.53505351  0.75569941  1
  Li  Li101  1  0.15253000  0.61747649  0.24430059  1
  Li  Li102  1  0.46494649  0.84747000  0.24430059  1
  Li  Li103  1  0.38252351  0.53505351  0.24430059  1
  Li  Li104  1  0.06714413  0.91361714  0.06301291  1
  Li  Li105  1  0.08638286  0.15352698  0.06301291  1
  Li  Li106  1  0.84647302  0.93285587  0.06301291  1
  Li  Li107  1  0.06714413  0.91361714  0.93698709  1
  Li  Li108  1  0.08638286  0.15352698  0.93698709  1
  Li  Li109  1  0.84647302  0.93285587  0.93698709  1
  Li  Li110  1  0.91361714  0.06714413  0.93698709  1
  Li  Li111  1  0.15352698  0.08638286  0.93698709  1
  Li  Li112  1  0.93285587  0.84647302  0.93698709  1
  Li  Li113  1  0.91361714  0.06714413  0.06301291  1
  Li  Li114  1  0.15352698  0.08638286  0.06301291  1
  Li  Li115  1  0.93285587  0.84647302  0.06301291  1
  Li  Li116  1  0.00000000  0.00000000  0.00000000  1
  Li  Li117  1  0.33333333  0.66666667  0.00000000  1
  Li  Li118  1  0.66666667  0.33333333  0.00000000  1
  Li  Li119  1  0.62401991  0.55622613  0.24610557  1
  Li  Li120  1  0.44377387  0.06779378  0.24610557  1
  Li  Li121  1  0.93220622  0.37598009  0.24610557  1
  Li  Li122  1  0.62401991  0.55622613  0.75389443  1
  Li  Li123  1  0.44377387  0.06779378  0.75389443  1
  Li  Li124  1  0.93220622  0.37598009  0.75389443  1
  Li  Li125  1  0.55622613  0.62401991  0.75389443  1
  Li  Li126  1  0.06779378  0.44377387  0.75389443  1
  Li  Li127  1  0.37598009  0.93220622  0.75389443  1
  Li  Li128  1  0.55622613  0.62401991  0.24610557  1
  Li  Li129  1  0.06779378  0.44377387  0.24610557  1
  Li  Li130  1  0.37598009  0.93220622  0.24610557  1
  Li  Li131  1  0.33333333  0.66666667  0.41249408  1
  Li  Li132  1  0.33333333  0.66666667  0.58750592  1
  Li  Li133  1  0.66666667  0.33333333  0.58750592  1
  Li  Li134  1  0.66666667  0.33333333  0.41249408  1
  Li  Li135  1  0.82720713  0.00000000  0.50000000  1
  Li  Li136  1  0.00000000  0.82720713  0.50000000  1
  Li  Li137  1  0.17279287  0.17279287  0.50000000  1
  Li  Li138  1  0.10067167  0.00000000  0.46236495  1
  Li  Li139  1  0.00000000  0.10067167  0.46236495  1
  Li  Li140  1  0.89932833  0.89932833  0.46236495  1
  Li  Li141  1  0.10067167  0.00000000  0.53763505  1
  Li  Li142  1  0.00000000  0.10067167  0.53763505  1
  Li  Li143  1  0.89932833  0.89932833  0.53763505  1
  Te  Te144  1  0.83856317  0.52357955  0.50000000  1
  Te  Te145  1  0.47642045  0.31498362  0.50000000  1
  Te  Te146  1  0.68501638  0.16143683  0.50000000  1
  Te  Te147  1  0.52357955  0.83856317  0.50000000  1
  Te  Te148  1  0.31498362  0.47642045  0.50000000  1
  Te  Te149  1  0.16143683  0.68501638  0.50000000  1
  Te  Te150  1  0.34681786  0.14683338  0.38664169  1
  Te  Te151  1  0.85316662  0.19998448  0.38664169  1
  Te  Te152  1  0.80001552  0.65318214  0.38664169  1
  Te  Te153  1  0.34681786  0.14683338  0.61335831  1
  Te  Te154  1  0.85316662  0.19998448  0.61335831  1
  Te  Te155  1  0.80001552  0.65318214  0.61335831  1
  Te  Te156  1  0.14683338  0.34681786  0.61335831  1
  Te  Te157  1  0.19998448  0.85316662  0.61335831  1
  Te  Te158  1  0.65318214  0.80001552  0.61335831  1
  Te  Te159  1  0.14683338  0.34681786  0.38664169  1
  Te  Te160  1  0.19998448  0.85316662  0.38664169  1
  Te  Te161  1  0.65318214  0.80001552  0.38664169  1
  Te  Te162  1  0.19240759  0.30332207  0.00000000  1
  Te  Te163  1  0.69667793  0.88908552  0.00000000  1
  Te  Te164  1  0.11091448  0.80759241  0.00000000  1
  Te  Te165  1  0.30332207  0.19240759  0.00000000  1
  Te  Te166  1  0.88908552  0.69667793  0.00000000  1
  Te  Te167  1  0.80759241  0.11091448  0.00000000  1
