# generated using pymatgen
data_Li2Y2MoP2
_symmetry_space_group_name_H-M   'P 1'
_cell_length_a   4.82724598
_cell_length_b   5.00650148
_cell_length_c   6.96679802
_cell_angle_alpha   95.04696147
_cell_angle_beta   100.99123284
_cell_angle_gamma   110.27163835
_symmetry_Int_Tables_number   1
_chemical_formula_structural   Li2Y2MoP2
_chemical_formula_sum   'Li2 Y2 Mo1 P2'
_cell_volume   152.86047862
_cell_formula_units_Z   1
loop_
 _symmetry_equiv_pos_site_id
 _symmetry_equiv_pos_as_xyz
  1  'x, y, z'
loop_
 _atom_site_type_symbol
 _atom_site_label
 _atom_site_symmetry_multiplicity
 _atom_site_fract_x
 _atom_site_fract_y
 _atom_site_fract_z
 _atom_site_occupancy
  P  P0  1  0.12500000  0.12500000  0.12500000  1
  P  P1  1  0.50000000  0.50000000  0.50000000  1
  Mo  Mo2  1  0.25000000  0.25000000  0.25000000  1
  Li  Li3  1  0.75000000  0.75000000  0.75000000  1
  Li  Li4  1  0.59293795  0.85592061  0.71890082  1
  Y  Y5  1  0.56359505  0.10015985  0.19900146  1
  Y  Y6  1  0.88900460  0.52336254  0.22691157  1
