# generated using pymatgen
data_Li2YP4Pb2F2
_symmetry_space_group_name_H-M   'P 1'
_cell_length_a   7.33283195
_cell_length_b   6.97939670
_cell_length_c   8.72908741
_cell_angle_alpha   94.08886692
_cell_angle_beta   98.90470209
_cell_angle_gamma   106.42335332
_symmetry_Int_Tables_number   1
_chemical_formula_structural   Li2YP4Pb2F2
_chemical_formula_sum   'Li2 Y1 P4 Pb2 F2'
_cell_volume   420.21860445
_cell_formula_units_Z   1
loop_
 _symmetry_equiv_pos_site_id
 _symmetry_equiv_pos_as_xyz
  1  'x, y, z'
loop_
 _atom_site_type_symbol
 _atom_site_label
 _atom_site_symmetry_multiplicity
 _atom_site_fract_x
 _atom_site_fract_y
 _atom_site_fract_z
 _atom_site_occupancy
  P  P0  1  0.12500000  0.00000000  0.25000000  1
  P  P1  1  0.00000000  0.00000000  0.00000000  1
  P  P2  1  0.37500000  0.00000000  0.25000000  1
  P  P3  1  0.25000000  0.25000000  0.25000000  1
  Pb  Pb4  1  0.00000000  0.25000000  0.12500000  1
  Pb  Pb5  1  0.89857544  0.75077909  0.49051503  1
  F  F6  1  0.32687310  0.12804264  0.58137017  1
  F  F7  1  0.24226515  0.23748510  0.22579430  1
  Li  Li8  1  0.33002039  0.06047913  0.30674768  1
  Li  Li9  1  0.34707523  0.85025093  0.22373094  1
  Y  Y10  1  0.81514154  0.96799243  0.47766734  1
