# generated using pymatgen
data_LiF
_symmetry_space_group_name_H-M   'P 1'
_cell_length_a   6.81120220
_cell_length_b   7.57043872
_cell_length_c   12.56195602
_cell_angle_alpha   90.00000000
_cell_angle_beta   90.00000000
_cell_angle_gamma   90.00000000
_symmetry_Int_Tables_number   1
_chemical_formula_structural   LiF
_chemical_formula_sum   'Li22 F22'
_cell_volume   647.74204832
_cell_formula_units_Z   22
loop_
 _symmetry_equiv_pos_site_id
 _symmetry_equiv_pos_as_xyz
  1  'x, y, z'
loop_
 _atom_site_type_symbol
 _atom_site_label
 _atom_site_symmetry_multiplicity
 _atom_site_fract_x
 _atom_site_fract_y
 _atom_site_fract_z
 _atom_site_occupancy
  F  F0  1  0.59717678  0.43968643  0.00000000  1
  F  F1  1  0.40282322  0.56031357  0.00000000  1
  F  F2  1  0.90282322  0.93968643  0.00000000  1
  F  F3  1  0.09717678  0.06031357  0.00000000  1
  F  F4  1  0.69728933  0.84763842  0.78844187  1
  F  F5  1  0.30271067  0.15236158  0.78844187  1
  F  F6  1  0.80271067  0.34763842  0.21155813  1
  F  F7  1  0.19728933  0.65236158  0.21155813  1
  F  F8  1  0.30271067  0.15236158  0.21155813  1
  F  F9  1  0.69728933  0.84763842  0.21155813  1
  F  F10  1  0.19728933  0.65236158  0.78844187  1
  F  F11  1  0.80271067  0.34763842  0.78844187  1
  F  F12  1  0.00000000  0.50000000  0.50000000  1
  F  F13  1  0.50000000  -0.00000000  0.50000000  1
  F  F14  1  0.00000000  0.50000000  0.15923117  1
  F  F15  1  0.50000000  -0.00000000  0.84076883  1
  F  F16  1  0.00000000  0.50000000  0.84076883  1
  F  F17  1  0.50000000  -0.00000000  0.15923117  1
  F  F18  1  0.11518783  0.73595184  0.50000000  1
  F  F19  1  0.88481217  0.26404816  0.50000000  1
  F  F20  1  0.38481217  0.23595184  0.50000000  1
  F  F21  1  0.61518783  0.76404816  0.50000000  1
  Li  Li22  1  0.00000000  0.50000000  0.00000000  1
  Li  Li23  1  0.50000000  -0.00000000  0.00000000  1
  Li  Li24  1  0.73619164  0.78468390  0.09608553  1
  Li  Li25  1  -0.73619164  -0.78468390  0.09608553  1
  Li  Li26  1  -0.23619164  1.28468390  -0.09608553  1
  Li  Li27  1  1.23619164  -0.28468390  -0.09608553  1
  Li  Li28  1  -0.73619164  -0.78468390  -0.09608553  1
  Li  Li29  1  0.73619164  0.78468390  -0.09608553  1
  Li  Li30  1  1.23619164  -0.28468390  0.09608553  1
  Li  Li31  1  -0.23619164  1.28468390  0.09608553  1
  Li  Li32  1  0.35256794  0.82141394  0.50000000  1
  Li  Li33  1  0.64743206  0.17858606  0.50000000  1
  Li  Li34  1  0.14743206  0.32141394  0.50000000  1
  Li  Li35  1  0.85256794  0.67858606  0.50000000  1
  Li  Li36  1  0.28518941  0.84646076  0.75865576  1
  Li  Li37  1  0.71481059  0.15353924  0.75865576  1
  Li  Li38  1  0.21481059  0.34646076  0.24134424  1
  Li  Li39  1  0.78518941  0.65353924  0.24134424  1
  Li  Li40  1  0.71481059  0.15353924  0.24134424  1
  Li  Li41  1  0.28518941  0.84646076  0.24134424  1
  Li  Li42  1  0.78518941  0.65353924  0.75865576  1
  Li  Li43  1  0.21481059  0.34646076  0.75865576  1
