# generated using pymatgen
data_LiF
_symmetry_space_group_name_H-M   'P 1'
_cell_length_a   8.60191517
_cell_length_b   8.60191517
_cell_length_c   35.28485220
_cell_angle_alpha   90.00000000
_cell_angle_beta   90.00000000
_cell_angle_gamma   90.00000000
_symmetry_Int_Tables_number   1
_chemical_formula_structural   LiF
_chemical_formula_sum   'Li64 F64'
_cell_volume   2610.83011431
_cell_formula_units_Z   64
loop_
 _symmetry_equiv_pos_site_id
 _symmetry_equiv_pos_as_xyz
  1  'x, y, z'
loop_
 _atom_site_type_symbol
 _atom_site_label
 _atom_site_symmetry_multiplicity
 _atom_site_fract_x
 _atom_site_fract_y
 _atom_site_fract_z
 _atom_site_occupancy
  F  F0  1  0.18676329  0.84988349  0.92907202  1
  F  F1  1  0.31323671  0.15011651  0.42907202  1
  F  F2  1  0.40011651  0.93676329  0.17907202  1
  F  F3  1  0.09988349  0.06323671  0.67907202  1
  F  F4  1  0.31323671  0.84988349  0.07092798  1
  F  F5  1  0.18676329  0.15011651  0.57092798  1
  F  F6  1  0.09988349  0.93676329  0.82092798  1
  F  F7  1  0.40011651  0.06323671  0.32092798  1
  F  F8  1  0.81323671  0.15011651  0.07092798  1
  F  F9  1  0.68676329  0.84988349  0.57092798  1
  F  F10  1  0.59988349  0.06323671  0.82092798  1
  F  F11  1  0.90011651  0.93676329  0.32092798  1
  F  F12  1  0.68676329  0.15011651  0.92907202  1
  F  F13  1  0.81323671  0.84988349  0.42907202  1
  F  F14  1  0.90011651  0.06323671  0.17907202  1
  F  F15  1  0.59988349  0.93676329  0.67907202  1
  F  F16  1  0.68676329  0.34988349  0.42907202  1
  F  F17  1  0.81323671  0.65011651  0.92907202  1
  F  F18  1  0.90011651  0.43676329  0.67907202  1
  F  F19  1  0.59988349  0.56323671  0.17907202  1
  F  F20  1  0.81323671  0.34988349  0.57092798  1
  F  F21  1  0.68676329  0.65011651  0.07092798  1
  F  F22  1  0.59988349  0.43676329  0.32092798  1
  F  F23  1  0.90011651  0.56323671  0.82092798  1
  F  F24  1  0.31323671  0.65011651  0.57092798  1
  F  F25  1  0.18676329  0.34988349  0.07092798  1
  F  F26  1  0.09988349  0.56323671  0.32092798  1
  F  F27  1  0.40011651  0.43676329  0.82092798  1
  F  F28  1  0.18676329  0.65011651  0.42907202  1
  F  F29  1  0.31323671  0.34988349  0.92907202  1
  F  F30  1  0.40011651  0.56323671  0.67907202  1
  F  F31  1  0.09988349  0.43676329  0.17907202  1
  F  F32  1  0.60201562  0.67900333  0.61070834  1
  F  F33  1  0.89798438  0.32099667  0.11070834  1
  F  F34  1  0.57099667  0.35201562  0.86070834  1
  F  F35  1  0.92900333  0.64798438  0.36070834  1
  F  F36  1  0.89798438  0.67900333  0.38929166  1
  F  F37  1  0.60201562  0.32099667  0.88929166  1
  F  F38  1  0.92900333  0.35201562  0.13929166  1
  F  F39  1  0.57099667  0.64798438  0.63929166  1
  F  F40  1  0.39798438  0.32099667  0.38929166  1
  F  F41  1  0.10201562  0.67900333  0.88929166  1
  F  F42  1  0.42900333  0.64798438  0.13929166  1
  F  F43  1  0.07099667  0.35201562  0.63929166  1
  F  F44  1  0.10201562  0.32099667  0.61070834  1
  F  F45  1  0.39798438  0.67900333  0.11070834  1
  F  F46  1  0.07099667  0.64798438  0.86070834  1
  F  F47  1  0.42900333  0.35201562  0.36070834  1
  F  F48  1  0.10201562  0.17900333  0.11070834  1
  F  F49  1  0.39798438  0.82099667  0.61070834  1
  F  F50  1  0.07099667  0.85201562  0.36070834  1
  F  F51  1  0.42900333  0.14798438  0.86070834  1
  F  F52  1  0.39798438  0.17900333  0.88929166  1
  F  F53  1  0.10201562  0.82099667  0.38929166  1
  F  F54  1  0.42900333  0.85201562  0.63929166  1
  F  F55  1  0.07099667  0.14798438  0.13929166  1
  F  F56  1  0.89798438  0.82099667  0.88929166  1
  F  F57  1  0.60201562  0.17900333  0.38929166  1
  F  F58  1  0.92900333  0.14798438  0.63929166  1
  F  F59  1  0.57099667  0.85201562  0.13929166  1
  F  F60  1  0.60201562  0.82099667  0.11070834  1
  F  F61  1  0.89798438  0.17900333  0.61070834  1
  F  F62  1  0.57099667  0.14798438  0.36070834  1
  F  F63  1  0.92900333  0.85201562  0.86070834  1
  Li  Li64  1  0.00000000  0.25000000  0.37500000  1
  Li  Li65  1  0.00000000  0.75000000  0.62500000  1
  Li  Li66  1  0.50000000  0.25000000  0.62500000  1
  Li  Li67  1  0.50000000  0.75000000  0.37500000  1
  Li  Li68  1  0.50000000  0.75000000  0.87500000  1
  Li  Li69  1  0.50000000  0.25000000  0.12500000  1
  Li  Li70  1  0.00000000  0.75000000  0.12500000  1
  Li  Li71  1  0.00000000  0.25000000  0.87500000  1
  Li  Li72  1  0.71932382  0.85582833  0.20199763  1
  Li  Li73  1  -0.21932382  -0.85582833  0.70199763  1
  Li  Li74  1  -0.60582833  1.46932382  0.45199763  1
  Li  Li75  1  1.10582833  -0.46932382  0.95199763  1
  Li  Li76  1  -0.21932382  0.85582833  -0.20199763  1
  Li  Li77  1  0.71932382  -0.85582833  0.29800237  1
  Li  Li78  1  1.10582833  1.46932382  0.54800237  1
  Li  Li79  1  -0.60582833  -0.46932382  0.04800237  1
  Li  Li80  1  -0.71932382  -0.85582833  -0.20199763  1
  Li  Li81  1  1.21932382  0.85582833  0.29800237  1
  Li  Li82  1  1.60582833  -0.46932382  0.54800237  1
  Li  Li83  1  -0.10582833  1.46932382  0.04800237  1
  Li  Li84  1  1.21932382  -0.85582833  0.20199763  1
  Li  Li85  1  -0.71932382  0.85582833  0.70199763  1
  Li  Li86  1  -0.10582833  -0.46932382  0.45199763  1
  Li  Li87  1  1.60582833  1.46932382  0.95199763  1
  Li  Li88  1  1.21932382  1.35582833  0.70199763  1
  Li  Li89  1  0.28067618  -0.35582833  1.20199763  1
  Li  Li90  1  -0.10582833  1.96932382  0.95199763  1
  Li  Li91  1  1.60582833  0.03067618  1.45199763  1
  Li  Li92  1  0.28067618  1.35582833  0.29800237  1
  Li  Li93  1  1.21932382  -0.35582833  0.79800237  1
  Li  Li94  1  1.60582833  1.96932382  1.04800237  1
  Li  Li95  1  -0.10582833  0.03067618  0.54800237  1
  Li  Li96  1  -0.21932382  -0.35582833  0.29800237  1
  Li  Li97  1  1.71932382  1.35582833  0.79800237  1
  Li  Li98  1  2.10582833  0.03067618  1.04800237  1
  Li  Li99  1  0.39417167  1.96932382  0.54800237  1
  Li  Li100  1  1.71932382  -0.35582833  0.70199763  1
  Li  Li101  1  -0.21932382  1.35582833  1.20199763  1
  Li  Li102  1  0.39417167  0.03067618  0.95199763  1
  Li  Li103  1  2.10582833  1.96932382  1.45199763  1
  Li  Li104  1  0.00000000  0.25000000  0.47391048  1
  Li  Li105  1  0.00000000  0.75000000  0.72391048  1
  Li  Li106  1  0.50000000  0.25000000  0.52608952  1
  Li  Li107  1  0.50000000  0.75000000  0.27608952  1
  Li  Li108  1  0.00000000  0.75000000  0.52608952  1
  Li  Li109  1  0.00000000  0.25000000  0.27608952  1
  Li  Li110  1  0.50000000  0.75000000  0.47391048  1
  Li  Li111  1  0.50000000  0.25000000  0.72391048  1
  Li  Li112  1  0.50000000  0.75000000  0.97391048  1
  Li  Li113  1  0.50000000  0.25000000  0.22391048  1
  Li  Li114  1  0.00000000  0.75000000  0.02608952  1
  Li  Li115  1  0.00000000  0.25000000  0.77608952  1
  Li  Li116  1  0.50000000  0.25000000  0.02608952  1
  Li  Li117  1  0.50000000  0.75000000  0.77608952  1
  Li  Li118  1  0.00000000  0.25000000  0.97391048  1
  Li  Li119  1  0.00000000  0.75000000  0.22391048  1
  Li  Li120  1  0.00000000  0.25000000  0.12500000  1
  Li  Li121  1  0.00000000  0.75000000  0.37500000  1
  Li  Li122  1  0.00000000  0.75000000  0.87500000  1
  Li  Li123  1  0.00000000  0.25000000  0.62500000  1
  Li  Li124  1  0.50000000  0.75000000  0.62500000  1
  Li  Li125  1  0.50000000  0.25000000  0.87500000  1
  Li  Li126  1  0.50000000  0.25000000  0.37500000  1
  Li  Li127  1  0.50000000  0.75000000  0.12500000  1
