# generated using pymatgen
data_LiPO3
_symmetry_space_group_name_H-M   'P 1'
_cell_length_a   15.54503292
_cell_length_b   15.54503292
_cell_length_c   6.37179879
_cell_angle_alpha   90.00000000
_cell_angle_beta   90.00000000
_cell_angle_gamma   120.00000000
_symmetry_Int_Tables_number   1
_chemical_formula_structural   LiPO3
_chemical_formula_sum   'Li24 P24 O72'
_cell_volume   1333.44767085
_cell_formula_units_Z   24
loop_
 _symmetry_equiv_pos_site_id
 _symmetry_equiv_pos_as_xyz
  1  'x, y, z'
loop_
 _atom_site_type_symbol
 _atom_site_label
 _atom_site_symmetry_multiplicity
 _atom_site_fract_x
 _atom_site_fract_y
 _atom_site_fract_z
 _atom_site_occupancy
  Li  Li0  1  0.40380755  0.00000000  0.25000000  1
  Li  Li1  1  0.00000000  0.40380755  0.25000000  1
  Li  Li2  1  0.59619245  0.59619245  0.25000000  1
  Li  Li3  1  0.59619245  0.00000000  0.75000000  1
  Li  Li4  1  0.00000000  0.59619245  0.75000000  1
  Li  Li5  1  0.40380755  0.40380755  0.75000000  1
  Li  Li6  1  0.07047422  0.33333333  0.58333333  1
  Li  Li7  1  0.66666667  0.73714089  0.58333333  1
  Li  Li8  1  0.26285911  0.92952578  0.58333333  1
  Li  Li9  1  0.26285911  0.33333333  0.08333333  1
  Li  Li10  1  0.66666667  0.92952578  0.08333333  1
  Li  Li11  1  0.07047422  0.73714089  0.08333333  1
  Li  Li12  1  0.73714089  0.66666667  0.91666667  1
  Li  Li13  1  0.33333333  0.07047422  0.91666667  1
  Li  Li14  1  0.92952578  0.26285911  0.91666667  1
  Li  Li15  1  0.92952578  0.66666667  0.41666667  1
  Li  Li16  1  0.33333333  0.26285911  0.41666667  1
  Li  Li17  1  0.73714089  0.07047422  0.41666667  1
  Li  Li18  1  0.00000000  0.00000000  0.25000000  1
  Li  Li19  1  0.00000000  0.00000000  0.75000000  1
  Li  Li20  1  0.66666667  0.33333333  0.58333333  1
  Li  Li21  1  0.66666667  0.33333333  0.08333333  1
  Li  Li22  1  0.33333333  0.66666667  0.91666667  1
  Li  Li23  1  0.33333333  0.66666667  0.41666667  1
  O  O24  1  0.50000000  0.00000000  0.00000000  1
  O  O25  1  0.00000000  0.50000000  0.00000000  1
  O  O26  1  0.50000000  0.50000000  0.00000000  1
  O  O27  1  0.00000000  0.50000000  0.50000000  1
  O  O28  1  0.50000000  0.00000000  0.50000000  1
  O  O29  1  0.50000000  0.50000000  0.50000000  1
  O  O30  1  0.16666667  0.33333333  0.33333333  1
  O  O31  1  0.66666667  0.83333333  0.33333333  1
  O  O32  1  0.16666667  0.83333333  0.33333333  1
  O  O33  1  0.66666667  0.83333333  0.83333333  1
  O  O34  1  0.16666667  0.33333333  0.83333333  1
  O  O35  1  0.16666667  0.83333333  0.83333333  1
  O  O36  1  0.83333333  0.66666667  0.66666667  1
  O  O37  1  0.33333333  0.16666667  0.66666667  1
  O  O38  1  0.83333333  0.16666667  0.66666667  1
  O  O39  1  0.33333333  0.16666667  0.16666667  1
  O  O40  1  0.83333333  0.66666667  0.16666667  1
  O  O41  1  0.83333333  0.16666667  0.16666667  1
  O  O42  1  0.49682304  0.37474230  0.85122898  1
  O  O43  1  -0.37474230  0.12208075  0.85122898  1
  O  O44  1  -0.12208075  -0.49682304  0.85122898  1
  O  O45  1  0.37474230  0.49682304  -0.35122898  1
  O  O46  1  0.12208075  -0.37474230  -0.35122898  1
  O  O47  1  -0.49682304  -0.12208075  -0.35122898  1
  O  O48  1  -0.49682304  -0.37474230  -0.85122898  1
  O  O49  1  0.37474230  -0.12208075  -0.85122898  1
  O  O50  1  0.12208075  0.49682304  -0.85122898  1
  O  O51  1  -0.37474230  -0.49682304  1.35122898  1
  O  O52  1  -0.12208075  0.37474230  1.35122898  1
  O  O53  1  0.49682304  0.12208075  1.35122898  1
  O  O54  1  1.16348971  0.70807563  1.18456232  1
  O  O55  1  0.29192437  0.45541408  1.18456232  1
  O  O56  1  0.54458592  -0.16348971  1.18456232  1
  O  O57  1  1.04140897  0.83015638  -0.01789565  1
  O  O58  1  0.78874741  -0.04140897  -0.01789565  1
  O  O59  1  0.16984362  0.21125259  -0.01789565  1
  O  O60  1  0.16984362  -0.04140897  -0.51789565  1
  O  O61  1  1.04140897  0.21125259  -0.51789565  1
  O  O62  1  0.78874741  0.83015638  -0.51789565  1
  O  O63  1  0.29192437  -0.16348971  1.68456232  1
  O  O64  1  0.54458592  0.70807563  1.68456232  1
  O  O65  1  1.16348971  0.45541408  1.68456232  1
  O  O66  1  0.83015638  1.04140897  1.51789565  1
  O  O67  1  -0.04140897  0.78874741  1.51789565  1
  O  O68  1  0.21125259  0.16984362  1.51789565  1
  O  O69  1  0.70807563  1.16348971  0.31543768  1
  O  O70  1  0.45541408  0.29192437  0.31543768  1
  O  O71  1  -0.16348971  0.54458592  0.31543768  1
  O  O72  1  -0.16348971  0.29192437  -0.18456232  1
  O  O73  1  0.70807563  0.54458592  -0.18456232  1
  O  O74  1  0.45541408  1.16348971  -0.18456232  1
  O  O75  1  -0.04140897  0.16984362  2.01789565  1
  O  O76  1  0.21125259  1.04140897  2.01789565  1
  O  O77  1  0.83015638  0.78874741  2.01789565  1
  O  O78  1  0.55138240  0.00000000  0.25000000  1
  O  O79  1  0.00000000  0.55138240  0.25000000  1
  O  O80  1  0.44861760  0.44861760  0.25000000  1
  O  O81  1  0.44861760  0.00000000  0.75000000  1
  O  O82  1  0.00000000  0.44861760  0.75000000  1
  O  O83  1  0.55138240  0.55138240  0.75000000  1
  O  O84  1  0.21804907  0.33333333  0.58333333  1
  O  O85  1  0.66666667  0.88471574  0.58333333  1
  O  O86  1  0.11528426  0.78195093  0.58333333  1
  O  O87  1  0.11528426  0.33333333  0.08333333  1
  O  O88  1  0.66666667  0.78195093  0.08333333  1
  O  O89  1  0.21804907  0.88471574  0.08333333  1
  O  O90  1  0.88471574  0.66666667  0.91666667  1
  O  O91  1  0.33333333  0.21804907  0.91666667  1
  O  O92  1  0.78195093  0.11528426  0.91666667  1
  O  O93  1  0.78195093  0.66666667  0.41666667  1
  O  O94  1  0.33333333  0.11528426  0.41666667  1
  O  O95  1  0.88471574  0.21804907  0.41666667  1
  P  P96  1  0.88751200  0.00000000  0.25000000  1
  P  P97  1  0.00000000  0.88751200  0.25000000  1
  P  P98  1  0.11248800  0.11248800  0.25000000  1
  P  P99  1  0.11248800  0.00000000  0.75000000  1
  P  P100  1  0.00000000  0.11248800  0.75000000  1
  P  P101  1  0.88751200  0.88751200  0.75000000  1
  P  P102  1  0.55417866  0.33333333  0.58333333  1
  P  P103  1  0.66666667  0.22084533  0.58333333  1
  P  P104  1  0.77915467  0.44582134  0.58333333  1
  P  P105  1  0.77915467  0.33333333  0.08333333  1
  P  P106  1  0.66666667  0.44582134  0.08333333  1
  P  P107  1  0.55417866  0.22084533  0.08333333  1
  P  P108  1  0.22084533  0.66666667  0.91666667  1
  P  P109  1  0.33333333  0.55417866  0.91666667  1
  P  P110  1  0.44582134  0.77915467  0.91666667  1
  P  P111  1  0.44582134  0.66666667  0.41666667  1
  P  P112  1  0.33333333  0.77915467  0.41666667  1
  P  P113  1  0.22084533  0.55417866  0.41666667  1
  P  P114  1  0.00000000  0.00000000  0.00000000  1
  P  P115  1  0.00000000  0.00000000  0.50000000  1
  P  P116  1  0.66666667  0.33333333  0.33333333  1
  P  P117  1  0.66666667  0.33333333  0.83333333  1
  P  P118  1  0.33333333  0.66666667  0.66666667  1
  P  P119  1  0.33333333  0.66666667  0.16666667  1
