# generated using pymatgen
data_Li2As2P3Se
_symmetry_space_group_name_H-M   'P 1'
_cell_length_a   5.08697524
_cell_length_b   5.41447121
_cell_length_c   6.82318768
_cell_angle_alpha   93.90250684
_cell_angle_beta   98.47711043
_cell_angle_gamma   104.92120015
_symmetry_Int_Tables_number   1
_chemical_formula_structural   Li2As2P3Se
_chemical_formula_sum   'Li2 As2 P3 Se1'
_cell_volume   178.50358377
_cell_formula_units_Z   1
loop_
 _symmetry_equiv_pos_site_id
 _symmetry_equiv_pos_as_xyz
  1  'x, y, z'
loop_
 _atom_site_type_symbol
 _atom_site_label
 _atom_site_symmetry_multiplicity
 _atom_site_fract_x
 _atom_site_fract_y
 _atom_site_fract_z
 _atom_site_occupancy
  Se  Se0  1  0.00000000  0.00000000  0.00000000  1
  P  P1  1  0.50000000  0.50000000  0.50000000  1
  P  P2  1  0.50000000  0.50000000  0.00000000  1
  P  P3  1  0.50000000  0.00000000  0.50000000  1
  As  As4  1  0.00000000  0.50000000  0.50000000  1
  As  As5  1  0.12742542  0.37024278  0.14866103  1
  Li  Li6  1  0.33586880  0.96099683  0.18212842  1
  Li  Li7  1  0.44161482  0.42246502  0.43082840  1
