# generated using pymatgen
data_LiY2Al2Se
_symmetry_space_group_name_H-M   'P 1'
_cell_length_a   6.88161699
_cell_length_b   6.24864943
_cell_length_c   8.35491065
_cell_angle_alpha   91.81203234
_cell_angle_beta   93.94622972
_cell_angle_gamma   97.27821372
_symmetry_Int_Tables_number   1
_chemical_formula_structural   LiY2Al2Se
_chemical_formula_sum   'Li1 Y2 Al2 Se1'
_cell_volume   355.23276487
_cell_formula_units_Z   1
loop_
 _symmetry_equiv_pos_site_id
 _symmetry_equiv_pos_as_xyz
  1  'x, y, z'
loop_
 _atom_site_type_symbol
 _atom_site_label
 _atom_site_symmetry_multiplicity
 _atom_site_fract_x
 _atom_site_fract_y
 _atom_site_fract_z
 _atom_site_occupancy
  Al  Al0  1  0.00000000  0.00000000  0.00000000  1
  Al  Al1  1  0.50000000  0.50000000  0.50000000  1
  Se  Se2  1  0.50000000  0.50000000  0.00000000  1
  Y  Y3  1  0.50000000  0.00000000  0.50000000  1
  Y  Y4  1  0.00000000  0.50000000  0.50000000  1
  Li  Li5  1  0.34423208  0.10103851  0.24390358  1
