# generated using pymatgen
data_LiF
_symmetry_space_group_name_H-M   'P 1'
_cell_length_a   10.32951699
_cell_length_b   10.32951699
_cell_length_c   6.60032941
_cell_angle_alpha   90.00000000
_cell_angle_beta   90.00000000
_cell_angle_gamma   120.00000000
_symmetry_Int_Tables_number   1
_chemical_formula_structural   LiF
_chemical_formula_sum   'Li24 F24'
_cell_volume   609.89668264
_cell_formula_units_Z   24
loop_
 _symmetry_equiv_pos_site_id
 _symmetry_equiv_pos_as_xyz
  1  'x, y, z'
loop_
 _atom_site_type_symbol
 _atom_site_label
 _atom_site_symmetry_multiplicity
 _atom_site_fract_x
 _atom_site_fract_y
 _atom_site_fract_z
 _atom_site_occupancy
  F  F0  1  0.50803485  0.28719781  0.19466653  1
  F  F1  1  0.71280219  0.22083704  0.19466653  1
  F  F2  1  0.77916296  0.49196515  0.19466653  1
  F  F3  1  0.71280219  0.49196515  0.80533347  1
  F  F4  1  0.77916296  0.28719781  0.80533347  1
  F  F5  1  0.50803485  0.22083704  0.80533347  1
  F  F6  1  0.87222138  0.59916057  0.17167583  1
  F  F7  1  0.40083943  0.27306080  0.17167583  1
  F  F8  1  0.72693920  0.12777862  0.17167583  1
  F  F9  1  0.40083943  0.12777862  0.82832417  1
  F  F10  1  0.72693920  0.59916057  0.82832417  1
  F  F11  1  0.87222138  0.27306080  0.82832417  1
  F  F12  1  0.60479030  0.12220277  0.53791220  1
  F  F13  1  0.87779723  0.48258753  0.53791220  1
  F  F14  1  0.51741247  0.39520970  0.53791220  1
  F  F15  1  0.87779723  0.39520970  0.46208780  1
  F  F16  1  0.51741247  0.12220277  0.46208780  1
  F  F17  1  0.60479030  0.48258753  0.46208780  1
  F  F18  1  0.00000000  0.00000000  0.08326434  1
  F  F19  1  0.00000000  0.00000000  0.91673566  1
  F  F20  1  0.16409761  0.83590239  0.00000000  1
  F  F21  1  0.16409761  0.32819522  0.00000000  1
  F  F22  1  0.67180478  0.83590239  -0.00000000  1
  F  F23  1  0.33333333  0.66666667  0.00000000  1
  Li  Li24  1  0.42458338  0.57541662  0.50000000  1
  Li  Li25  1  0.42458338  0.84916677  0.50000000  1
  Li  Li26  1  0.15083323  0.57541662  0.50000000  1
  Li  Li27  1  0.29583539  0.36222226  0.41262338  1
  Li  Li28  1  -0.36222226  -0.06638687  0.41262338  1
  Li  Li29  1  0.06638687  -0.29583539  0.41262338  1
  Li  Li30  1  -0.36222226  -0.29583539  -0.41262338  1
  Li  Li31  1  0.06638687  0.36222226  -0.41262338  1
  Li  Li32  1  0.29583539  -0.06638687  -0.41262338  1
  Li  Li33  1  0.00000000  0.00000000  0.50000000  1
  Li  Li34  1  0.33333333  0.66666667  0.50000000  1
  Li  Li35  1  0.60804272  0.51712164  0.63797363  1
  Li  Li36  1  0.48287836  0.09092108  0.63797363  1
  Li  Li37  1  0.90907892  0.39195728  0.63797363  1
  Li  Li38  1  0.48287836  0.39195728  0.36202637  1
  Li  Li39  1  0.90907892  0.51712164  0.36202637  1
  Li  Li40  1  0.60804272  0.09092108  0.36202637  1
  Li  Li41  1  0.44583758  0.55416242  0.00000000  1
  Li  Li42  1  0.44583758  0.89167517  0.00000000  1
  Li  Li43  1  0.10832483  0.55416242  0.00000000  1
  Li  Li44  1  0.81017490  0.18982510  -0.00000000  1
  Li  Li45  1  0.81017490  0.62034979  0.00000000  1
  Li  Li46  1  0.37965021  0.18982510  -0.00000000  1
  Li  Li47  1  0.66666667  0.33333333  0.00000000  1
