# generated using pymatgen
data_LiF
_symmetry_space_group_name_H-M   'P 1'
_cell_length_a   10.75773195
_cell_length_b   10.75773195
_cell_length_c   5.67167773
_cell_angle_alpha   90.00000000
_cell_angle_beta   90.00000000
_cell_angle_gamma   120.00000000
_symmetry_Int_Tables_number   1
_chemical_formula_structural   LiF
_chemical_formula_sum   'Li28 F28'
_cell_volume   568.43867029
_cell_formula_units_Z   28
loop_
 _symmetry_equiv_pos_site_id
 _symmetry_equiv_pos_as_xyz
  1  'x, y, z'
loop_
 _atom_site_type_symbol
 _atom_site_label
 _atom_site_symmetry_multiplicity
 _atom_site_fract_x
 _atom_site_fract_y
 _atom_site_fract_z
 _atom_site_occupancy
  F  F0  1  0.80624943  0.87962983  0.94867300  1
  F  F1  1  0.12037017  0.92661961  0.94867300  1
  F  F2  1  0.07338039  0.19375057  0.94867300  1
  F  F3  1  0.12037017  0.19375057  0.05132700  1
  F  F4  1  0.07338039  0.87962983  0.05132700  1
  F  F5  1  0.80624943  0.92661961  0.05132700  1
  F  F6  1  0.33333333  0.66666667  0.00000000  1
  F  F7  1  0.31046561  0.92079256  0.72640674  1
  F  F8  1  0.07920744  0.38967306  0.72640674  1
  F  F9  1  0.61032694  0.68953439  0.72640674  1
  F  F10  1  0.07920744  0.68953439  0.27359326  1
  F  F11  1  0.61032694  0.92079256  0.27359326  1
  F  F12  1  0.31046561  0.38967306  0.27359326  1
  F  F13  1  0.86014471  0.00873901  0.39366884  1
  F  F14  1  0.99126099  0.85140570  0.39366884  1
  F  F15  1  0.14859430  0.13985529  0.39366884  1
  F  F16  1  0.99126099  0.13985529  0.60633116  1
  F  F17  1  0.14859430  0.00873901  0.60633116  1
  F  F18  1  0.86014471  0.85140570  0.60633116  1
  F  F19  1  0.88800913  0.70533905  0.92702407  1
  F  F20  1  0.29466095  0.18267007  0.92702407  1
  F  F21  1  0.81732993  0.11199087  0.92702407  1
  F  F22  1  0.29466095  0.11199087  0.07297593  1
  F  F23  1  0.81732993  0.70533905  0.07297593  1
  F  F24  1  0.88800913  0.18267007  0.07297593  1
  F  F25  1  0.28806258  0.71193742  -0.00000000  1
  F  F26  1  0.28806258  0.57612516  0.00000000  1
  F  F27  1  0.42387484  0.71193742  0.00000000  1
  Li  Li28  1  0.48235786  0.82011074  0.47409569  1
  Li  Li29  1  -0.82011074  -0.33775288  0.47409569  1
  Li  Li30  1  0.33775288  -0.48235786  0.47409569  1
  Li  Li31  1  -0.82011074  -0.48235786  -0.47409569  1
  Li  Li32  1  0.33775288  0.82011074  -0.47409569  1
  Li  Li33  1  0.48235786  -0.33775288  -0.47409569  1
  Li  Li34  1  0.88010817  0.03048871  0.72964236  1
  Li  Li35  1  0.96951129  0.84961946  0.72964236  1
  Li  Li36  1  0.15038054  0.11989183  0.72964236  1
  Li  Li37  1  0.96951129  0.11989183  0.27035764  1
  Li  Li38  1  0.15038054  0.03048871  0.27035764  1
  Li  Li39  1  0.88010817  0.84961946  0.27035764  1
  Li  Li40  1  0.87911839  0.31799506  0.12396968  1
  Li  Li41  1  0.68200494  0.56112333  0.12396968  1
  Li  Li42  1  0.43887667  0.12088161  0.12396968  1
  Li  Li43  1  0.68200494  0.12088161  0.87603032  1
  Li  Li44  1  0.43887667  0.31799506  0.87603032  1
  Li  Li45  1  0.87911839  0.56112333  0.87603032  1
  Li  Li46  1  0.00000000  0.00000000  0.00000000  1
  Li  Li47  1  0.66666667  0.33333333  0.00000000  1
  Li  Li48  1  0.89293950  0.26197526  0.80881414  1
  Li  Li49  1  0.73802474  0.63096424  0.80881414  1
  Li  Li50  1  0.36903576  0.10706050  0.80881414  1
  Li  Li51  1  0.73802474  0.10706050  0.19118586  1
  Li  Li52  1  0.36903576  0.26197526  0.19118586  1
  Li  Li53  1  0.89293950  0.63096424  0.19118586  1
  Li  Li54  1  0.33333333  0.66666667  0.80532057  1
  Li  Li55  1  0.33333333  0.66666667  0.19467943  1
