# generated using pymatgen
data_Li4TeF2
_symmetry_space_group_name_H-M   'P 1'
_cell_length_a   12.75799291
_cell_length_b   12.75799291
_cell_length_c   17.14577316
_cell_angle_alpha   90.00000000
_cell_angle_beta   90.00000000
_cell_angle_gamma   120.00000000
_symmetry_Int_Tables_number   1
_chemical_formula_structural   Li4TeF2
_chemical_formula_sum   'Li96 Te24 F48'
_cell_volume   2416.86514565
_cell_formula_units_Z   24
loop_
 _symmetry_equiv_pos_site_id
 _symmetry_equiv_pos_as_xyz
  1  'x, y, z'
loop_
 _atom_site_type_symbol
 _atom_site_label
 _atom_site_symmetry_multiplicity
 _atom_site_fract_x
 _atom_site_fract_y
 _atom_site_fract_z
 _atom_site_occupancy
  F  F0  1  0.00000000  0.00000000  0.14035218  1
  F  F1  1  0.00000000  0.00000000  0.35964782  1
  F  F2  1  0.00000000  0.00000000  0.85964782  1
  F  F3  1  0.00000000  0.00000000  0.64035218  1
  F  F4  1  0.66666667  0.33333333  0.47368551  1
  F  F5  1  0.66666667  0.33333333  0.69298115  1
  F  F6  1  0.66666667  0.33333333  0.19298115  1
  F  F7  1  0.66666667  0.33333333  0.97368551  1
  F  F8  1  0.33333333  0.66666667  0.80701885  1
  F  F9  1  0.33333333  0.66666667  0.02631449  1
  F  F10  1  0.33333333  0.66666667  0.52631449  1
  F  F11  1  0.33333333  0.66666667  0.30701885  1
  F  F12  1  0.42818845  0.70888836  0.88765777  1
  F  F13  1  -0.70888836  -0.28069991  0.88765777  1
  F  F14  1  0.28069991  -0.42818845  0.88765777  1
  F  F15  1  0.70888836  0.42818845  -0.38765777  1
  F  F16  1  -0.28069991  -0.70888836  -0.38765777  1
  F  F17  1  -0.42818845  0.28069991  -0.38765777  1
  F  F18  1  -0.42818845  -0.70888836  -0.88765777  1
  F  F19  1  0.70888836  0.28069991  -0.88765777  1
  F  F20  1  -0.28069991  0.42818845  -0.88765777  1
  F  F21  1  -0.70888836  -0.42818845  1.38765777  1
  F  F22  1  0.28069991  0.70888836  1.38765777  1
  F  F23  1  0.42818845  -0.28069991  1.38765777  1
  F  F24  1  1.09485512  1.04222169  1.22099110  1
  F  F25  1  -0.04222169  0.05263342  1.22099110  1
  F  F26  1  0.94736658  -0.09485512  1.22099110  1
  F  F27  1  1.37555503  0.76152178  -0.05432444  1
  F  F28  1  0.38596676  -0.37555503  -0.05432444  1
  F  F29  1  0.23847822  0.61403324  -0.05432444  1
  F  F30  1  0.23847822  -0.37555503  -0.55432444  1
  F  F31  1  1.37555503  0.61403324  -0.55432444  1
  F  F32  1  0.38596676  0.76152178  -0.55432444  1
  F  F33  1  -0.04222169  -0.09485512  1.72099110  1
  F  F34  1  0.94736658  1.04222169  1.72099110  1
  F  F35  1  1.09485512  0.05263342  1.72099110  1
  F  F36  1  0.76152178  1.37555503  1.55432444  1
  F  F37  1  -0.37555503  0.38596676  1.55432444  1
  F  F38  1  0.61403324  0.23847822  1.55432444  1
  F  F39  1  1.04222169  1.09485512  0.27900890  1
  F  F40  1  0.05263342  -0.04222169  0.27900890  1
  F  F41  1  -0.09485512  0.94736658  0.27900890  1
  F  F42  1  -0.09485512  -0.04222169  -0.22099110  1
  F  F43  1  1.04222169  0.94736658  -0.22099110  1
  F  F44  1  0.05263342  1.09485512  -0.22099110  1
  F  F45  1  -0.37555503  0.23847822  2.05432444  1
  F  F46  1  0.61403324  1.37555503  2.05432444  1
  F  F47  1  0.76152178  0.38596676  2.05432444  1
  Li  Li48  1  0.34466073  0.85660856  0.46735595  1
  Li  Li49  1  0.14339144  0.48805217  0.46735595  1
  Li  Li50  1  0.51194783  0.65533927  0.46735595  1
  Li  Li51  1  0.85660856  0.34466073  0.03264405  1
  Li  Li52  1  0.48805217  0.14339144  0.03264405  1
  Li  Li53  1  0.65533927  0.51194783  0.03264405  1
  Li  Li54  1  0.65533927  0.14339144  0.53264405  1
  Li  Li55  1  0.85660856  0.51194783  0.53264405  1
  Li  Li56  1  0.48805217  0.34466073  0.53264405  1
  Li  Li57  1  0.14339144  0.65533927  0.96735595  1
  Li  Li58  1  0.51194783  0.85660856  0.96735595  1
  Li  Li59  1  0.34466073  0.48805217  0.96735595  1
  Li  Li60  1  0.01132740  0.18994189  0.80068929  1
  Li  Li61  1  0.81005811  0.82138550  0.80068929  1
  Li  Li62  1  0.17861450  0.98867260  0.80068929  1
  Li  Li63  1  0.52327523  0.67799406  0.36597738  1
  Li  Li64  1  0.15471884  0.47672477  0.36597738  1
  Li  Li65  1  0.32200594  0.84528116  0.36597738  1
  Li  Li66  1  0.32200594  0.47672477  0.86597738  1
  Li  Li67  1  0.52327523  0.84528116  0.86597738  1
  Li  Li68  1  0.15471884  0.67799406  0.86597738  1
  Li  Li69  1  0.81005811  0.98867260  0.30068929  1
  Li  Li70  1  0.17861450  0.18994189  0.30068929  1
  Li  Li71  1  0.01132740  0.82138550  0.30068929  1
  Li  Li72  1  0.67799406  0.52327523  0.13402262  1
  Li  Li73  1  0.47672477  0.15471884  0.13402262  1
  Li  Li74  1  0.84528116  0.32200594  0.13402262  1
  Li  Li75  1  0.18994189  0.01132740  0.69931071  1
  Li  Li76  1  0.82138550  0.81005811  0.69931071  1
  Li  Li77  1  0.98867260  0.17861450  0.69931071  1
  Li  Li78  1  0.98867260  0.81005811  0.19931071  1
  Li  Li79  1  0.18994189  0.17861450  0.19931071  1
  Li  Li80  1  0.82138550  0.01132740  0.19931071  1
  Li  Li81  1  0.47672477  0.32200594  0.63402262  1
  Li  Li82  1  0.84528116  0.52327523  0.63402262  1
  Li  Li83  1  0.67799406  0.15471884  0.63402262  1
  Li  Li84  1  0.90046231  0.82366745  0.23303357  1
  Li  Li85  1  0.17633255  0.07679486  0.23303357  1
  Li  Li86  1  0.92320514  0.09953769  0.23303357  1
  Li  Li87  1  0.82366745  0.90046231  0.26696643  1
  Li  Li88  1  0.07679486  0.17633255  0.26696643  1
  Li  Li89  1  0.09953769  0.92320514  0.26696643  1
  Li  Li90  1  0.09953769  0.17633255  0.76696643  1
  Li  Li91  1  0.82366745  0.92320514  0.76696643  1
  Li  Li92  1  0.07679486  0.90046231  0.76696643  1
  Li  Li93  1  0.17633255  0.09953769  0.73303357  1
  Li  Li94  1  0.92320514  0.82366745  0.73303357  1
  Li  Li95  1  0.90046231  0.07679486  0.73303357  1
  Li  Li96  1  0.56712897  0.15700078  0.56636691  1
  Li  Li97  1  0.84299922  0.41012819  0.56636691  1
  Li  Li98  1  0.58987181  0.43287103  0.56636691  1
  Li  Li99  1  0.49033412  0.23379564  0.60029976  1
  Li  Li100  1  0.74346152  0.50966588  0.60029976  1
  Li  Li101  1  0.76620436  0.25653848  0.60029976  1
  Li  Li102  1  0.76620436  0.50966588  0.10029976  1
  Li  Li103  1  0.49033412  0.25653848  0.10029976  1
  Li  Li104  1  0.74346152  0.23379564  0.10029976  1
  Li  Li105  1  0.84299922  0.43287103  0.06636691  1
  Li  Li106  1  0.58987181  0.15700078  0.06636691  1
  Li  Li107  1  0.56712897  0.41012819  0.06636691  1
  Li  Li108  1  0.23379564  0.49033412  0.89970024  1
  Li  Li109  1  0.50966588  0.74346152  0.89970024  1
  Li  Li110  1  0.25653848  0.76620436  0.89970024  1
  Li  Li111  1  0.15700078  0.56712897  0.93363309  1
  Li  Li112  1  0.41012819  0.84299922  0.93363309  1
  Li  Li113  1  0.43287103  0.58987181  0.93363309  1
  Li  Li114  1  0.43287103  0.84299922  0.43363309  1
  Li  Li115  1  0.15700078  0.58987181  0.43363309  1
  Li  Li116  1  0.41012819  0.56712897  0.43363309  1
  Li  Li117  1  0.50966588  0.76620436  0.39970024  1
  Li  Li118  1  0.25653848  0.49033412  0.39970024  1
  Li  Li119  1  0.23379564  0.74346152  0.39970024  1
  Li  Li120  1  0.26793229  0.00000000  0.25000000  1
  Li  Li121  1  0.00000000  0.26793229  0.25000000  1
  Li  Li122  1  0.73206771  0.73206771  0.25000000  1
  Li  Li123  1  0.73206771  0.00000000  0.75000000  1
  Li  Li124  1  0.00000000  0.73206771  0.75000000  1
  Li  Li125  1  0.26793229  0.26793229  0.75000000  1
  Li  Li126  1  0.93459895  0.33333333  0.58333333  1
  Li  Li127  1  0.66666667  0.60126562  0.58333333  1
  Li  Li128  1  0.39873438  0.06540105  0.58333333  1
  Li  Li129  1  0.39873438  0.33333333  0.08333333  1
  Li  Li130  1  0.66666667  0.06540105  0.08333333  1
  Li  Li131  1  0.93459895  0.60126562  0.08333333  1
  Li  Li132  1  0.60126562  0.66666667  0.91666667  1
  Li  Li133  1  0.33333333  0.93459895  0.91666667  1
  Li  Li134  1  0.06540105  0.39873438  0.91666667  1
  Li  Li135  1  0.06540105  0.66666667  0.41666667  1
  Li  Li136  1  0.33333333  0.39873438  0.41666667  1
  Li  Li137  1  0.60126562  0.93459895  0.41666667  1
  Li  Li138  1  0.00000000  0.00000000  0.25000000  1
  Li  Li139  1  0.00000000  0.00000000  0.75000000  1
  Li  Li140  1  0.66666667  0.33333333  0.58333333  1
  Li  Li141  1  0.66666667  0.33333333  0.08333333  1
  Li  Li142  1  0.33333333  0.66666667  0.91666667  1
  Li  Li143  1  0.33333333  0.66666667  0.41666667  1
  Te  Te144  1  0.50000000  0.00000000  0.00000000  1
  Te  Te145  1  0.00000000  0.50000000  0.00000000  1
  Te  Te146  1  0.50000000  0.50000000  0.00000000  1
  Te  Te147  1  0.00000000  0.50000000  0.50000000  1
  Te  Te148  1  0.50000000  0.00000000  0.50000000  1
  Te  Te149  1  0.50000000  0.50000000  0.50000000  1
  Te  Te150  1  0.16666667  0.33333333  0.33333333  1
  Te  Te151  1  0.66666667  0.83333333  0.33333333  1
  Te  Te152  1  0.16666667  0.83333333  0.33333333  1
  Te  Te153  1  0.66666667  0.83333333  0.83333333  1
  Te  Te154  1  0.16666667  0.33333333  0.83333333  1
  Te  Te155  1  0.16666667  0.83333333  0.83333333  1
  Te  Te156  1  0.83333333  0.66666667  0.66666667  1
  Te  Te157  1  0.33333333  0.16666667  0.66666667  1
  Te  Te158  1  0.83333333  0.16666667  0.66666667  1
  Te  Te159  1  0.33333333  0.16666667  0.16666667  1
  Te  Te160  1  0.83333333  0.66666667  0.16666667  1
  Te  Te161  1  0.83333333  0.16666667  0.16666667  1
  Te  Te162  1  0.00000000  0.00000000  0.00000000  1
  Te  Te163  1  0.00000000  0.00000000  0.50000000  1
  Te  Te164  1  0.66666667  0.33333333  0.33333333  1
  Te  Te165  1  0.66666667  0.33333333  0.83333333  1
  Te  Te166  1  0.33333333  0.66666667  0.66666667  1
  Te  Te167  1  0.33333333  0.66666667  0.16666667  1
