# generated using pymatgen
data_LiYP2(NF)2
_symmetry_space_group_name_H-M   'P 1'
_cell_length_a   4.94430629
_cell_length_b   4.72072806
_cell_length_c   7.32528516
_cell_angle_alpha   95.32721231
_cell_angle_beta   101.60156090
_cell_angle_gamma   111.39729458
_symmetry_Int_Tables_number   1
_chemical_formula_structural   LiYP2(NF)2
_chemical_formula_sum   'Li2 Y2 P4 N4 F4'
_cell_volume   153.32878403
_cell_formula_units_Z   2
loop_
 _symmetry_equiv_pos_site_id
 _symmetry_equiv_pos_as_xyz
  1  'x, y, z'
loop_
 _atom_site_type_symbol
 _atom_site_label
 _atom_site_symmetry_multiplicity
 _atom_site_fract_x
 _atom_site_fract_y
 _atom_site_fract_z
 _atom_site_occupancy
  F  F0  1  0.00000000  0.00000000  0.00000000  1
  F  F1  1  0.50000000  0.50000000  0.50000000  1
  F  F2  1  0.50000000  0.50000000  0.00000000  1
  F  F3  1  0.50000000  0.00000000  0.50000000  1
  N  N4  1  0.00000000  0.50000000  0.50000000  1
  N  N5  1  0.87936353  0.50523810  0.45113226  1
  N  N6  1  0.01980138  0.14606066  0.68978161  1
  N  N7  1  0.29944612  0.94948646  0.68916602  1
  P  P8  1  0.33083583  0.28960177  0.97448951  1
  P  P9  1  0.34240583  0.59597738  0.09636989  1
  P  P10  1  0.76635599  0.43228544  0.34857696  1
  P  P11  1  0.40829900  0.91471287  0.07790187  1
  Li  Li12  1  0.16579829  0.35763881  0.83560122  1
  Li  Li13  1  0.64140253  0.77338845  0.44320144  1
  Y  Y14  1  0.65606929  0.16120702  0.61038109  1
  Y  Y15  1  0.02312680  0.77274880  0.67207536  1
