# generated using pymatgen
data_LiF
_symmetry_space_group_name_H-M   'P 1'
_cell_length_a   8.05602378
_cell_length_b   8.05602378
_cell_length_c   6.91723127
_cell_angle_alpha   90.00000000
_cell_angle_beta   90.00000000
_cell_angle_gamma   90.00000000
_symmetry_Int_Tables_number   1
_chemical_formula_structural   LiF
_chemical_formula_sum   'Li16 F16'
_cell_volume   448.92498356
_cell_formula_units_Z   16
loop_
 _symmetry_equiv_pos_site_id
 _symmetry_equiv_pos_as_xyz
  1  'x, y, z'
loop_
 _atom_site_type_symbol
 _atom_site_label
 _atom_site_symmetry_multiplicity
 _atom_site_fract_x
 _atom_site_fract_y
 _atom_site_fract_z
 _atom_site_occupancy
  F  F0  1  0.92008248  0.00000000  0.00000000  1
  F  F1  1  0.57991752  0.00000000  0.50000000  1
  F  F2  1  0.25000000  0.67008248  0.25000000  1
  F  F3  1  0.25000000  0.32991752  0.75000000  1
  F  F4  1  0.07991752  0.00000000  0.00000000  1
  F  F5  1  0.42008248  0.00000000  0.50000000  1
  F  F6  1  0.75000000  0.32991752  0.75000000  1
  F  F7  1  0.75000000  0.67008248  0.25000000  1
  F  F8  1  0.42008248  0.50000000  0.50000000  1
  F  F9  1  0.07991752  0.50000000  0.00000000  1
  F  F10  1  0.75000000  0.17008248  0.75000000  1
  F  F11  1  0.75000000  0.82991752  0.25000000  1
  F  F12  1  0.57991752  0.50000000  0.50000000  1
  F  F13  1  0.92008248  0.50000000  0.00000000  1
  F  F14  1  0.25000000  0.82991752  0.25000000  1
  F  F15  1  0.25000000  0.17008248  0.75000000  1
  Li  Li16  1  0.39648936  0.64648936  0.87500000  1
  Li  Li17  1  0.10351064  0.35351064  0.37500000  1
  Li  Li18  1  -0.39648936  1.14648936  0.12500000  1
  Li  Li19  1  0.89648936  -0.14648936  0.62500000  1
  Li  Li20  1  -0.39648936  0.35351064  0.12500000  1
  Li  Li21  1  0.89648936  0.64648936  0.62500000  1
  Li  Li22  1  0.39648936  -0.14648936  0.87500000  1
  Li  Li23  1  0.10351064  1.14648936  0.37500000  1
  Li  Li24  1  0.89648936  1.14648936  1.37500000  1
  Li  Li25  1  0.60351064  0.85351064  0.87500000  1
  Li  Li26  1  0.10351064  1.64648936  0.62500000  1
  Li  Li27  1  1.39648936  0.35351064  1.12500000  1
  Li  Li28  1  0.10351064  0.85351064  0.62500000  1
  Li  Li29  1  1.39648936  1.14648936  1.12500000  1
  Li  Li30  1  0.89648936  0.35351064  1.37500000  1
  Li  Li31  1  0.60351064  1.64648936  0.87500000  1
