# generated using pymatgen
data_LiF
_symmetry_space_group_name_H-M   'P 1'
_cell_length_a   17.37841531
_cell_length_b   17.37841531
_cell_length_c   4.52922661
_cell_angle_alpha   90.00000000
_cell_angle_beta   90.00000000
_cell_angle_gamma   90.00000000
_symmetry_Int_Tables_number   1
_chemical_formula_structural   LiF
_chemical_formula_sum   'Li56 F56'
_cell_volume   1367.86864270
_cell_formula_units_Z   56
loop_
 _symmetry_equiv_pos_site_id
 _symmetry_equiv_pos_as_xyz
  1  'x, y, z'
loop_
 _atom_site_type_symbol
 _atom_site_label
 _atom_site_symmetry_multiplicity
 _atom_site_fract_x
 _atom_site_fract_y
 _atom_site_fract_z
 _atom_site_occupancy
  F  F0  1  0.38106339  0.63106339  0.87500000  1
  F  F1  1  0.11893661  0.36893661  0.37500000  1
  F  F2  1  0.61893661  0.13106339  0.12500000  1
  F  F3  1  0.88106339  0.86893661  0.62500000  1
  F  F4  1  0.61893661  0.36893661  0.12500000  1
  F  F5  1  0.88106339  0.63106339  0.62500000  1
  F  F6  1  0.38106339  0.86893661  0.87500000  1
  F  F7  1  0.11893661  0.13106339  0.37500000  1
  F  F8  1  0.88106339  0.13106339  0.37500000  1
  F  F9  1  0.61893661  0.86893661  0.87500000  1
  F  F10  1  0.11893661  0.63106339  0.62500000  1
  F  F11  1  0.38106339  0.36893661  0.12500000  1
  F  F12  1  0.11893661  0.86893661  0.62500000  1
  F  F13  1  0.38106339  0.13106339  0.12500000  1
  F  F14  1  0.88106339  0.36893661  0.37500000  1
  F  F15  1  0.61893661  0.63106339  0.87500000  1
  F  F16  1  0.42607482  0.38254604  0.49618273  1
  F  F17  1  0.07392518  0.61745396  0.99618273  1
  F  F18  1  0.86745396  0.17607482  0.74618273  1
  F  F19  1  0.63254604  0.82392518  0.24618273  1
  F  F20  1  0.07392518  0.38254604  0.00381727  1
  F  F21  1  0.42607482  0.61745396  0.50381727  1
  F  F22  1  0.63254604  0.17607482  0.75381727  1
  F  F23  1  0.86745396  0.82392518  0.25381727  1
  F  F24  1  0.57392518  0.61745396  0.50381727  1
  F  F25  1  0.92607482  0.38254604  0.00381727  1
  F  F26  1  0.13254604  0.82392518  0.25381727  1
  F  F27  1  0.36745396  0.17607482  0.75381727  1
  F  F28  1  0.92607482  0.61745396  0.99618273  1
  F  F29  1  0.57392518  0.38254604  0.49618273  1
  F  F30  1  0.36745396  0.82392518  0.24618273  1
  F  F31  1  0.13254604  0.17607482  0.74618273  1
  F  F32  1  0.92607482  0.88254604  0.99618273  1
  F  F33  1  0.57392518  0.11745396  0.49618273  1
  F  F34  1  0.36745396  0.67607482  0.24618273  1
  F  F35  1  0.13254604  0.32392518  0.74618273  1
  F  F36  1  0.57392518  0.88254604  0.50381727  1
  F  F37  1  0.92607482  0.11745396  0.00381727  1
  F  F38  1  0.13254604  0.67607482  0.25381727  1
  F  F39  1  0.36745396  0.32392518  0.75381727  1
  F  F40  1  0.07392518  0.11745396  0.00381727  1
  F  F41  1  0.42607482  0.88254604  0.50381727  1
  F  F42  1  0.63254604  0.32392518  0.75381727  1
  F  F43  1  0.86745396  0.67607482  0.25381727  1
  F  F44  1  0.42607482  0.11745396  0.49618273  1
  F  F45  1  0.07392518  0.88254604  0.99618273  1
  F  F46  1  0.86745396  0.32392518  0.74618273  1
  F  F47  1  0.63254604  0.67607482  0.24618273  1
  F  F48  1  0.00000000  0.00000000  0.00000000  1
  F  F49  1  0.50000000  0.00000000  0.50000000  1
  F  F50  1  0.25000000  0.75000000  0.25000000  1
  F  F51  1  0.25000000  0.25000000  0.75000000  1
  F  F52  1  0.50000000  0.50000000  0.50000000  1
  F  F53  1  0.00000000  0.50000000  0.00000000  1
  F  F54  1  0.75000000  0.25000000  0.75000000  1
  F  F55  1  0.75000000  0.75000000  0.25000000  1
  Li  Li56  1  0.17035784  0.82680678  0.09099832  1
  Li  Li57  1  0.32964216  -0.82680678  0.59099832  1
  Li  Li58  1  -0.57680678  0.92035784  0.34099832  1
  Li  Li59  1  1.07680678  0.07964216  0.84099832  1
  Li  Li60  1  0.32964216  0.82680678  0.40900168  1
  Li  Li61  1  0.17035784  -0.82680678  -0.09099832  1
  Li  Li62  1  1.07680678  0.92035784  0.15900168  1
  Li  Li63  1  -0.57680678  0.07964216  0.65900168  1
  Li  Li64  1  -0.17035784  -0.82680678  -0.09099832  1
  Li  Li65  1  0.67035784  0.82680678  0.40900168  1
  Li  Li66  1  1.57680678  0.07964216  0.65900168  1
  Li  Li67  1  -0.07680678  0.92035784  0.15900168  1
  Li  Li68  1  0.67035784  -0.82680678  0.59099832  1
  Li  Li69  1  -0.17035784  0.82680678  0.09099832  1
  Li  Li70  1  -0.07680678  0.07964216  0.84099832  1
  Li  Li71  1  1.57680678  0.92035784  0.34099832  1
  Li  Li72  1  0.67035784  1.32680678  0.59099832  1
  Li  Li73  1  0.82964216  -0.32680678  1.09099832  1
  Li  Li74  1  -0.07680678  1.42035784  0.84099832  1
  Li  Li75  1  1.57680678  0.57964216  1.34099832  1
  Li  Li76  1  0.82964216  1.32680678  0.90900168  1
  Li  Li77  1  0.67035784  -0.32680678  0.40900168  1
  Li  Li78  1  1.57680678  1.42035784  0.65900168  1
  Li  Li79  1  -0.07680678  0.57964216  1.15900168  1
  Li  Li80  1  0.32964216  -0.32680678  0.40900168  1
  Li  Li81  1  1.17035784  1.32680678  0.90900168  1
  Li  Li82  1  2.07680678  0.57964216  1.15900168  1
  Li  Li83  1  0.42319322  1.42035784  0.65900168  1
  Li  Li84  1  1.17035784  -0.32680678  1.09099832  1
  Li  Li85  1  0.32964216  1.32680678  0.59099832  1
  Li  Li86  1  0.42319322  0.57964216  1.34099832  1
  Li  Li87  1  2.07680678  1.42035784  0.84099832  1
  Li  Li88  1  0.00000000  0.67085722  0.53639722  1
  Li  Li89  1  0.50000000  0.32914278  0.03639722  1
  Li  Li90  1  0.57914278  0.75000000  0.78639722  1
  Li  Li91  1  0.92085722  0.25000000  0.28639722  1
  Li  Li92  1  0.50000000  0.67085722  0.96360278  1
  Li  Li93  1  0.00000000  0.32914278  0.46360278  1
  Li  Li94  1  0.92085722  0.75000000  0.71360278  1
  Li  Li95  1  0.57914278  0.25000000  0.21360278  1
  Li  Li96  1  0.50000000  0.17085722  0.03639722  1
  Li  Li97  1  0.00000000  0.82914278  0.53639722  1
  Li  Li98  1  0.07914278  0.25000000  0.28639722  1
  Li  Li99  1  0.42085722  0.75000000  0.78639722  1
  Li  Li100  1  0.00000000  0.17085722  0.46360278  1
  Li  Li101  1  0.50000000  0.82914278  0.96360278  1
  Li  Li102  1  0.42085722  0.25000000  0.21360278  1
  Li  Li103  1  0.07914278  0.75000000  0.71360278  1
  Li  Li104  1  0.00000000  0.75000000  0.12500000  1
  Li  Li105  1  0.50000000  0.75000000  0.37500000  1
  Li  Li106  1  0.50000000  0.25000000  0.62500000  1
  Li  Li107  1  0.00000000  0.25000000  0.87500000  1
  Li  Li108  1  0.00000000  0.25000000  0.37500000  1
  Li  Li109  1  0.00000000  0.75000000  0.62500000  1
  Li  Li110  1  0.50000000  0.75000000  0.87500000  1
  Li  Li111  1  0.50000000  0.25000000  0.12500000  1
