# generated using pymatgen
data_LiF
_symmetry_space_group_name_H-M   'P 1'
_cell_length_a   9.66273405
_cell_length_b   9.66273405
_cell_length_c   5.93215079
_cell_angle_alpha   90.00000000
_cell_angle_beta   90.00000000
_cell_angle_gamma   120.00000000
_symmetry_Int_Tables_number   1
_chemical_formula_structural   LiF
_chemical_formula_sum   'Li16 F16'
_cell_volume   479.67034177
_cell_formula_units_Z   16
loop_
 _symmetry_equiv_pos_site_id
 _symmetry_equiv_pos_as_xyz
  1  'x, y, z'
loop_
 _atom_site_type_symbol
 _atom_site_label
 _atom_site_symmetry_multiplicity
 _atom_site_fract_x
 _atom_site_fract_y
 _atom_site_fract_z
 _atom_site_occupancy
  F  F0  1  0.33333333  0.66666667  -0.00000000  1
  F  F1  1  0.66666667  0.33333333  -0.00000000  1
  F  F2  1  0.71916311  0.23622072  0.12618733  1
  F  F3  1  0.76377928  0.48294239  0.12618733  1
  F  F4  1  0.51705761  0.28083689  0.12618733  1
  F  F5  1  0.76377928  0.28083689  0.87381267  1
  F  F6  1  0.51705761  0.23622072  0.87381267  1
  F  F7  1  0.71916311  0.48294239  0.87381267  1
  F  F8  1  0.00000000  0.00000000  0.92298663  1
  F  F9  1  0.00000000  0.00000000  0.07701337  1
  F  F10  1  0.49553959  0.50446041  -0.00000000  1
  F  F11  1  0.49553959  0.99107918  -0.00000000  1
  F  F12  1  0.00892082  0.50446041  -0.00000000  1
  F  F13  1  0.90318052  0.09681948  0.50000000  1
  F  F14  1  0.90318052  0.80636104  0.50000000  1
  F  F15  1  0.19363896  0.09681948  0.50000000  1
  Li  Li16  1  0.49007644  0.50992356  0.50000000  1
  Li  Li17  1  0.49007644  0.98015287  0.50000000  1
  Li  Li18  1  0.01984713  0.50992356  0.50000000  1
  Li  Li19  1  0.00000000  0.00000000  0.50000000  1
  Li  Li20  1  0.13004675  0.61566914  0.11273205  1
  Li  Li21  1  -0.61566914  -0.48562238  0.11273205  1
  Li  Li22  1  0.48562238  -0.13004675  0.11273205  1
  Li  Li23  1  -0.61566914  -0.13004675  -0.11273205  1
  Li  Li24  1  0.48562238  0.61566914  -0.11273205  1
  Li  Li25  1  0.13004675  -0.48562238  -0.11273205  1
  Li  Li26  1  0.15020160  0.82174541  0.29245410  1
  Li  Li27  1  0.17825459  0.32845619  0.29245410  1
  Li  Li28  1  0.67154381  0.84979840  0.29245410  1
  Li  Li29  1  0.17825459  0.84979840  0.70754590  1
  Li  Li30  1  0.67154381  0.82174541  0.70754590  1
  Li  Li31  1  0.15020160  0.32845619  0.70754590  1
