# generated using pymatgen
data_Li2Ca3F8
_symmetry_space_group_name_H-M   'P 1'
_cell_length_a   11.19769091
_cell_length_b   11.19769091
_cell_length_c   11.19769091
_cell_angle_alpha   90.00000000
_cell_angle_beta   90.00000000
_cell_angle_gamma   90.00000000
_symmetry_Int_Tables_number   1
_chemical_formula_structural   Li2Ca3F8
_chemical_formula_sum   'Li16 Ca24 F64'
_cell_volume   1404.05922399
_cell_formula_units_Z   8
loop_
 _symmetry_equiv_pos_site_id
 _symmetry_equiv_pos_as_xyz
  1  'x, y, z'
loop_
 _atom_site_type_symbol
 _atom_site_label
 _atom_site_symmetry_multiplicity
 _atom_site_fract_x
 _atom_site_fract_y
 _atom_site_fract_z
 _atom_site_occupancy
  Ca  Ca0  1  0.62500000  -0.00000000  0.25000000  1
  Ca  Ca1  1  0.87500000  -0.00000000  0.75000000  1
  Ca  Ca2  1  0.25000000  0.62500000  -0.00000000  1
  Ca  Ca3  1  0.75000000  0.87500000  -0.00000000  1
  Ca  Ca4  1  0.00000000  0.25000000  0.62500000  1
  Ca  Ca5  1  0.00000000  0.75000000  0.87500000  1
  Ca  Ca6  1  0.12500000  0.50000000  0.75000000  1
  Ca  Ca7  1  0.37500000  0.50000000  0.25000000  1
  Ca  Ca8  1  0.75000000  0.12500000  0.50000000  1
  Ca  Ca9  1  0.25000000  0.37500000  0.50000000  1
  Ca  Ca10  1  0.50000000  0.75000000  0.12500000  1
  Ca  Ca11  1  0.50000000  0.25000000  0.37500000  1
  Ca  Ca12  1  0.12500000  -0.00000000  0.25000000  1
  Ca  Ca13  1  0.37500000  -0.00000000  0.75000000  1
  Ca  Ca14  1  0.25000000  0.12500000  -0.00000000  1
  Ca  Ca15  1  0.75000000  0.37500000  -0.00000000  1
  Ca  Ca16  1  0.00000000  0.25000000  0.12500000  1
  Ca  Ca17  1  0.00000000  0.75000000  0.37500000  1
  Ca  Ca18  1  0.62500000  0.50000000  0.75000000  1
  Ca  Ca19  1  0.87500000  0.50000000  0.25000000  1
  Ca  Ca20  1  0.75000000  0.62500000  0.50000000  1
  Ca  Ca21  1  0.25000000  0.87500000  0.50000000  1
  Ca  Ca22  1  0.50000000  0.75000000  0.62500000  1
  Ca  Ca23  1  0.50000000  0.25000000  0.87500000  1
  F  F24  1  0.82310191  0.54136010  0.57204779  1
  F  F25  1  -0.32310191  -0.54136010  1.07204779  1
  F  F26  1  -0.82310191  1.04136010  -0.07204779  1
  F  F27  1  1.32310191  -0.04136010  -0.57204779  1
  F  F28  1  0.57204779  0.82310191  0.54136010  1
  F  F29  1  1.07204779  -0.32310191  -0.54136010  1
  F  F30  1  -0.07204779  -0.82310191  1.04136010  1
  F  F31  1  -0.57204779  1.32310191  -0.04136010  1
  F  F32  1  0.54136010  0.57204779  0.82310191  1
  F  F33  1  -0.54136010  1.07204779  -0.32310191  1
  F  F34  1  1.04136010  -0.07204779  -0.82310191  1
  F  F35  1  -0.04136010  -0.57204779  1.32310191  1
  F  F36  1  1.29136010  1.07310191  -0.32204779  1
  F  F37  1  0.20863990  -0.07310191  0.17795221  1
  F  F38  1  0.79136010  -0.57310191  1.32204779  1
  F  F39  1  -0.29136010  1.57310191  0.82204779  1
  F  F40  1  1.57310191  0.82204779  -0.29136010  1
  F  F41  1  -0.57310191  1.32204779  0.79136010  1
  F  F42  1  -0.07310191  0.17795221  0.20863990  1
  F  F43  1  1.07310191  -0.32204779  1.29136010  1
  F  F44  1  1.32204779  0.79136010  -0.57310191  1
  F  F45  1  0.82204779  -0.29136010  1.57310191  1
  F  F46  1  -0.32204779  1.29136010  1.07310191  1
  F  F47  1  0.17795221  0.20863990  -0.07310191  1
  F  F48  1  1.32310191  1.04136010  1.07204779  1
  F  F49  1  0.17689809  -0.04136010  1.57204779  1
  F  F50  1  -0.32310191  1.54136010  0.42795221  1
  F  F51  1  1.82310191  0.45863990  -0.07204779  1
  F  F52  1  1.07204779  1.32310191  1.04136010  1
  F  F53  1  1.57204779  0.17689809  -0.04136010  1
  F  F54  1  0.42795221  -0.32310191  1.54136010  1
  F  F55  1  -0.07204779  1.82310191  0.45863990  1
  F  F56  1  1.04136010  1.07204779  1.32310191  1
  F  F57  1  -0.04136010  1.57204779  0.17689809  1
  F  F58  1  1.54136010  0.42795221  -0.32310191  1
  F  F59  1  0.45863990  -0.07204779  1.82310191  1
  F  F60  1  1.79136010  1.57310191  0.17795221  1
  F  F61  1  0.70863990  0.42689809  0.67795221  1
  F  F62  1  1.29136010  -0.07310191  1.82204779  1
  F  F63  1  0.20863990  2.07310191  1.32204779  1
  F  F64  1  2.07310191  1.32204779  0.20863990  1
  F  F65  1  -0.07310191  1.82204779  1.29136010  1
  F  F66  1  0.42689809  0.67795221  0.70863990  1
  F  F67  1  1.57310191  0.17795221  1.79136010  1
  F  F68  1  1.82204779  1.29136010  -0.07310191  1
  F  F69  1  1.32204779  0.20863990  2.07310191  1
  F  F70  1  0.17795221  1.79136010  1.57310191  1
  F  F71  1  0.67795221  0.70863990  0.42689809  1
  F  F72  1  0.87500000  0.87500000  0.87500000  1
  F  F73  1  0.62500000  0.12500000  0.37500000  1
  F  F74  1  0.12500000  0.37500000  0.62500000  1
  F  F75  1  0.37500000  0.62500000  0.12500000  1
  F  F76  1  0.37500000  0.37500000  0.37500000  1
  F  F77  1  0.12500000  0.62500000  0.87500000  1
  F  F78  1  0.62500000  0.87500000  0.12500000  1
  F  F79  1  0.87500000  0.12500000  0.62500000  1
  F  F80  1  0.12500000  0.12500000  0.12500000  1
  F  F81  1  0.37500000  0.87500000  0.62500000  1
  F  F82  1  0.87500000  0.62500000  0.37500000  1
  F  F83  1  0.62500000  0.37500000  0.87500000  1
  F  F84  1  0.62500000  0.62500000  0.62500000  1
  F  F85  1  0.87500000  0.37500000  0.12500000  1
  F  F86  1  0.37500000  0.12500000  0.87500000  1
  F  F87  1  0.12500000  0.87500000  0.37500000  1
  Li  Li88  1  0.24378829  0.24378829  0.24378829  1
  Li  Li89  1  0.25621171  0.75621171  0.74378829  1
  Li  Li90  1  0.75621171  0.74378829  0.25621171  1
  Li  Li91  1  0.74378829  0.25621171  0.75621171  1
  Li  Li92  1  0.99378829  0.49378829  0.00621171  1
  Li  Li93  1  0.50621171  0.50621171  0.50621171  1
  Li  Li94  1  0.49378829  0.00621171  0.99378829  1
  Li  Li95  1  0.00621171  0.99378829  0.49378829  1
  Li  Li96  1  0.74378829  0.74378829  0.74378829  1
  Li  Li97  1  0.75621171  0.25621171  0.24378829  1
  Li  Li98  1  0.25621171  0.24378829  0.75621171  1
  Li  Li99  1  0.24378829  0.75621171  0.25621171  1
  Li  Li100  1  0.49378829  0.99378829  0.50621171  1
  Li  Li101  1  0.00621171  0.00621171  0.00621171  1
  Li  Li102  1  0.99378829  0.50621171  0.49378829  1
  Li  Li103  1  0.50621171  0.49378829  0.99378829  1
