# generated using pymatgen
data_Li2CaSeF2
_symmetry_space_group_name_H-M   'P 1'
_cell_length_a   6.25889002
_cell_length_b   14.09396066
_cell_length_c   6.16810141
_cell_angle_alpha   90.00000000
_cell_angle_beta   90.00000000
_cell_angle_gamma   90.00000000
_symmetry_Int_Tables_number   1
_chemical_formula_structural   Li2CaSeF2
_chemical_formula_sum   'Li8 Ca4 Se4 F8'
_cell_volume   544.10395208
_cell_formula_units_Z   4
loop_
 _symmetry_equiv_pos_site_id
 _symmetry_equiv_pos_as_xyz
  1  'x, y, z'
loop_
 _atom_site_type_symbol
 _atom_site_label
 _atom_site_symmetry_multiplicity
 _atom_site_fract_x
 _atom_site_fract_y
 _atom_site_fract_z
 _atom_site_occupancy
  Ca  Ca0  1  0.61759807  0.25000000  0.57601841  1
  Ca  Ca1  1  0.88240193  0.75000000  0.07601841  1
  Ca  Ca2  1  0.38240193  0.75000000  0.42398159  1
  Ca  Ca3  1  0.11759807  0.25000000  0.92398159  1
  F  F4  1  0.71017387  0.25000000  0.93645240  1
  F  F5  1  0.78982613  0.75000000  0.43645240  1
  F  F6  1  0.28982613  0.75000000  0.06354760  1
  F  F7  1  0.21017387  0.25000000  0.56354760  1
  F  F8  1  0.72217231  0.25000000  0.79776609  1
  F  F9  1  0.77782769  0.75000000  0.29776609  1
  F  F10  1  0.27782769  0.75000000  0.20223391  1
  F  F11  1  0.22217231  0.25000000  0.70223391  1
  Li  Li12  1  0.66221298  0.39427574  0.16220577  1
  Li  Li13  1  -0.16221298  -0.39427574  0.66220577  1
  Li  Li14  1  -0.66221298  0.89427574  -0.16220577  1
  Li  Li15  1  1.16221298  0.10572426  0.33779423  1
  Li  Li16  1  -0.66221298  -0.39427574  -0.16220577  1
  Li  Li17  1  1.16221298  0.39427574  0.33779423  1
  Li  Li18  1  0.66221298  0.10572426  0.16220577  1
  Li  Li19  1  -0.16221298  0.89427574  0.66220577  1
  Se  Se20  1  0.00000000  0.00000000  0.00000000  1
  Se  Se21  1  0.50000000  0.00000000  0.50000000  1
  Se  Se22  1  0.00000000  0.50000000  0.00000000  1
  Se  Se23  1  0.50000000  0.50000000  0.50000000  1
