# generated using pymatgen
data_Li2Y2MoP3Se2
_symmetry_space_group_name_H-M   'P 1'
_cell_length_a   5.71980594
_cell_length_b   6.06158617
_cell_length_c   7.43026273
_cell_angle_alpha   93.52531004
_cell_angle_beta   97.67739238
_cell_angle_gamma   104.15976934
_symmetry_Int_Tables_number   1
_chemical_formula_structural   Li2Y2MoP3Se2
_chemical_formula_sum   'Li2 Y2 Mo1 P3 Se2'
_cell_volume   246.35762540
_cell_formula_units_Z   1
loop_
 _symmetry_equiv_pos_site_id
 _symmetry_equiv_pos_as_xyz
  1  'x, y, z'
loop_
 _atom_site_type_symbol
 _atom_site_label
 _atom_site_symmetry_multiplicity
 _atom_site_fract_x
 _atom_site_fract_y
 _atom_site_fract_z
 _atom_site_occupancy
  Se  Se0  1  0.00000000  0.00000000  0.00000000  1
  Se  Se1  1  0.50000000  0.50000000  0.50000000  1
  P  P2  1  0.50000000  0.50000000  0.00000000  1
  P  P3  1  0.50000000  0.00000000  0.50000000  1
  P  P4  1  0.00000000  0.50000000  0.50000000  1
  Mo  Mo5  1  0.43252461  0.79871490  0.13618635  1
  Li  Li6  1  0.31481366  0.14858016  0.31775850  1
  Li  Li7  1  0.37418819  0.94972048  0.70785057  1
  Y  Y8  1  0.09056496  0.98572648  0.14622611  1
  Y  Y9  1  0.74317060  0.06336567  0.23081835  1
