# generated using pymatgen
data_Li3YScOF
_symmetry_space_group_name_H-M   'P 1'
_cell_length_a   3.15804580
_cell_length_b   2.99306557
_cell_length_c   5.36894291
_cell_angle_alpha   103.96659834
_cell_angle_beta   109.43879409
_cell_angle_gamma   108.04407025
_symmetry_Int_Tables_number   1
_chemical_formula_structural   Li3YScOF
_chemical_formula_sum   'Li3 Y1 Sc1 O1 F1'
_cell_volume   42.01069133
_cell_formula_units_Z   1
loop_
 _symmetry_equiv_pos_site_id
 _symmetry_equiv_pos_as_xyz
  1  'x, y, z'
loop_
 _atom_site_type_symbol
 _atom_site_label
 _atom_site_symmetry_multiplicity
 _atom_site_fract_x
 _atom_site_fract_y
 _atom_site_fract_z
 _atom_site_occupancy
  F  F0  1  0.12500000  0.00000000  0.25000000  1
  Li  Li1  1  0.00000000  0.00000000  0.00000000  1
  Li  Li2  1  0.37500000  0.00000000  0.25000000  1
  Li  Li3  1  0.25000000  0.25000000  0.25000000  1
  O  O4  1  0.00000000  0.25000000  0.12500000  1
  Sc  Sc5  1  0.42192085  0.10683742  0.16202633  1
  Y  Y6  1  0.99984962  0.11846732  0.89929394  1
