# generated using pymatgen
data_LiYAs2P
_symmetry_space_group_name_H-M   'P 1'
_cell_length_a   5.04411784
_cell_length_b   5.13487231
_cell_length_c   6.79651187
_cell_angle_alpha   94.47050860
_cell_angle_beta   99.04252741
_cell_angle_gamma   106.86896126
_symmetry_Int_Tables_number   1
_chemical_formula_structural   LiYAs2P
_chemical_formula_sum   'Li2 Y2 As4 P2'
_cell_volume   164.93963861
_cell_formula_units_Z   2
loop_
 _symmetry_equiv_pos_site_id
 _symmetry_equiv_pos_as_xyz
  1  'x, y, z'
loop_
 _atom_site_type_symbol
 _atom_site_label
 _atom_site_symmetry_multiplicity
 _atom_site_fract_x
 _atom_site_fract_y
 _atom_site_fract_z
 _atom_site_occupancy
  P  P0  1  0.12500000  0.12500000  0.12500000  1
  P  P1  1  0.50000000  0.50000000  0.50000000  1
  As  As2  1  0.25000000  0.25000000  0.25000000  1
  As  As3  1  0.75000000  0.75000000  0.75000000  1
  As  As4  1  0.33692841  0.14033726  0.46245914  1
  As  As5  1  0.60337498  0.00162890  0.82514482  1
  Li  Li6  1  0.12924009  0.21379706  0.48687795  1
  Li  Li7  1  0.97717291  0.79039015  0.25992628  1
  Y  Y8  1  0.34847878  0.06890827  0.90847283  1
  Y  Y9  1  0.31811887  0.21614549  0.72521390  1
