# generated using pymatgen
data_LiF
_symmetry_space_group_name_H-M   'P 1'
_cell_length_a   7.92270363
_cell_length_b   5.77212431
_cell_length_c   13.73276966
_cell_angle_alpha   90.00000000
_cell_angle_beta   90.00000000
_cell_angle_gamma   90.00000000
_symmetry_Int_Tables_number   1
_chemical_formula_structural   LiF
_chemical_formula_sum   'Li26 F26'
_cell_volume   628.01095804
_cell_formula_units_Z   26
loop_
 _symmetry_equiv_pos_site_id
 _symmetry_equiv_pos_as_xyz
  1  'x, y, z'
loop_
 _atom_site_type_symbol
 _atom_site_label
 _atom_site_symmetry_multiplicity
 _atom_site_fract_x
 _atom_site_fract_y
 _atom_site_fract_z
 _atom_site_occupancy
  F  F0  1  0.00000000  0.50000000  0.80554977  1
  F  F1  1  0.50000000  0.00000000  0.69445023  1
  F  F2  1  0.00000000  0.50000000  0.19445023  1
  F  F3  1  0.50000000  0.00000000  0.30554977  1
  F  F4  1  0.78055306  0.88027475  0.71792900  1
  F  F5  1  -0.78055306  -0.88027475  0.71792900  1
  F  F6  1  -0.28055306  1.38027475  -0.21792900  1
  F  F7  1  1.28055306  -0.38027475  -0.21792900  1
  F  F8  1  -0.78055306  -0.88027475  -0.71792900  1
  F  F9  1  0.78055306  0.88027475  -0.71792900  1
  F  F10  1  1.28055306  -0.38027475  1.21792900  1
  F  F11  1  -0.28055306  1.38027475  1.21792900  1
  F  F12  1  0.00000000  0.00000000  0.50000000  1
  F  F13  1  0.50000000  0.50000000  0.00000000  1
  F  F14  1  0.27460797  0.45098702  0.25447315  1
  F  F15  1  0.72539203  0.54901298  0.25447315  1
  F  F16  1  0.22539203  0.95098702  0.24552685  1
  F  F17  1  0.77460797  0.04901298  0.24552685  1
  F  F18  1  0.72539203  0.54901298  0.74552685  1
  F  F19  1  0.27460797  0.45098702  0.74552685  1
  F  F20  1  0.77460797  0.04901298  0.75447315  1
  F  F21  1  0.22539203  0.95098702  0.75447315  1
  F  F22  1  0.48059046  0.24105743  -0.00000000  1
  F  F23  1  0.51940954  0.75894257  0.00000000  1
  F  F24  1  0.01940954  0.74105743  0.50000000  1
  F  F25  1  0.98059046  0.25894257  0.50000000  1
  Li  Li26  1  0.75220263  0.13277873  0.00000000  1
  Li  Li27  1  0.24779737  0.86722127  -0.00000000  1
  Li  Li28  1  0.74779737  0.63277873  0.50000000  1
  Li  Li29  1  0.25220263  0.36722127  0.50000000  1
  Li  Li30  1  0.18436922  0.60475609  0.34213906  1
  Li  Li31  1  0.81563078  0.39524391  0.34213906  1
  Li  Li32  1  0.31563078  0.10475609  0.15786094  1
  Li  Li33  1  0.68436922  0.89524391  0.15786094  1
  Li  Li34  1  0.81563078  0.39524391  0.65786094  1
  Li  Li35  1  0.18436922  0.60475609  0.65786094  1
  Li  Li36  1  0.68436922  0.89524391  0.84213906  1
  Li  Li37  1  0.31563078  0.10475609  0.84213906  1
  Li  Li38  1  0.76839873  0.31359858  0.44293544  1
  Li  Li39  1  0.23160127  0.68640142  0.44293544  1
  Li  Li40  1  0.73160127  0.81359858  0.05706456  1
  Li  Li41  1  0.26839873  0.18640142  0.05706456  1
  Li  Li42  1  0.23160127  0.68640142  0.55706456  1
  Li  Li43  1  0.76839873  0.31359858  0.55706456  1
  Li  Li44  1  0.26839873  0.18640142  0.94293544  1
  Li  Li45  1  0.73160127  0.81359858  0.94293544  1
  Li  Li46  1  0.00000000  0.00000000  0.00000000  1
  Li  Li47  1  0.50000000  0.50000000  0.50000000  1
  Li  Li48  1  0.00000000  0.50000000  -0.00000000  1
  Li  Li49  1  0.50000000  0.00000000  0.50000000  1
  Li  Li50  1  0.00000000  0.50000000  0.50000000  1
  Li  Li51  1  0.50000000  0.00000000  0.00000000  1
