# generated using pymatgen
data_Li3(SbP)2
_symmetry_space_group_name_H-M   'P 1'
_cell_length_a   4.35635732
_cell_length_b   4.56168369
_cell_length_c   6.89549068
_cell_angle_alpha   95.86068369
_cell_angle_beta   102.76335065
_cell_angle_gamma   113.54003708
_symmetry_Int_Tables_number   1
_chemical_formula_structural   Li3(SbP)2
_chemical_formula_sum   'Li3 Sb2 P2'
_cell_volume   119.71340117
_cell_formula_units_Z   1
loop_
 _symmetry_equiv_pos_site_id
 _symmetry_equiv_pos_as_xyz
  1  'x, y, z'
loop_
 _atom_site_type_symbol
 _atom_site_label
 _atom_site_symmetry_multiplicity
 _atom_site_fract_x
 _atom_site_fract_y
 _atom_site_fract_z
 _atom_site_occupancy
  P  P0  1  0.12500000  0.12500000  0.12500000  1
  P  P1  1  0.50000000  0.50000000  0.50000000  1
  Li  Li2  1  0.25000000  0.25000000  0.25000000  1
  Li  Li3  1  0.75000000  0.75000000  0.75000000  1
  Li  Li4  1  0.00464129  0.78254070  0.54517829  1
  Sb  Sb5  1  0.31929037  0.04265041  0.59379305  1
  Sb  Sb6  1  0.99475550  0.31870928  0.56064914  1
