# generated using pymatgen
data_LiF
_symmetry_space_group_name_H-M   'P 1'
_cell_length_a   11.66742576
_cell_length_b   11.08745447
_cell_length_c   10.85032728
_cell_angle_alpha   90.00000000
_cell_angle_beta   90.00000000
_cell_angle_gamma   90.00000000
_symmetry_Int_Tables_number   1
_chemical_formula_structural   LiF
_chemical_formula_sum   'Li40 F40'
_cell_volume   1403.62059973
_cell_formula_units_Z   40
loop_
 _symmetry_equiv_pos_site_id
 _symmetry_equiv_pos_as_xyz
  1  'x, y, z'
loop_
 _atom_site_type_symbol
 _atom_site_label
 _atom_site_symmetry_multiplicity
 _atom_site_fract_x
 _atom_site_fract_y
 _atom_site_fract_z
 _atom_site_occupancy
  F  F0  1  0.76000675  0.97313832  0.33784877  1
  F  F1  1  0.23999325  0.02686168  0.33784877  1
  F  F2  1  0.73999325  0.47313832  0.66215123  1
  F  F3  1  0.26000675  0.52686168  0.66215123  1
  F  F4  1  0.23999325  0.02686168  0.66215123  1
  F  F5  1  0.76000675  0.97313832  0.66215123  1
  F  F6  1  0.26000675  0.52686168  0.33784877  1
  F  F7  1  0.73999325  0.47313832  0.33784877  1
  F  F8  1  0.94559750  0.64055937  -0.00000000  1
  F  F9  1  0.05440250  0.35944063  -0.00000000  1
  F  F10  1  0.55440250  0.14055937  -0.00000000  1
  F  F11  1  0.44559750  0.85944063  -0.00000000  1
  F  F12  1  0.40902314  0.03060229  0.39250830  1
  F  F13  1  0.59097686  0.96939771  0.39250830  1
  F  F14  1  0.09097686  0.53060229  0.60749170  1
  F  F15  1  0.90902314  0.46939771  0.60749170  1
  F  F16  1  0.59097686  0.96939771  0.60749170  1
  F  F17  1  0.40902314  0.03060229  0.60749170  1
  F  F18  1  0.90902314  0.46939771  0.39250830  1
  F  F19  1  0.09097686  0.53060229  0.39250830  1
  F  F20  1  0.04012849  0.45199772  0.23625270  1
  F  F21  1  0.95987151  0.54800228  0.23625270  1
  F  F22  1  0.45987151  0.95199772  0.76374730  1
  F  F23  1  0.54012849  0.04800228  0.76374730  1
  F  F24  1  0.95987151  0.54800228  0.76374730  1
  F  F25  1  0.04012849  0.45199772  0.76374730  1
  F  F26  1  0.54012849  0.04800228  0.23625270  1
  F  F27  1  0.45987151  0.95199772  0.23625270  1
  F  F28  1  0.00000000  0.00000000  0.50000000  1
  F  F29  1  0.50000000  0.50000000  0.50000000  1
  F  F30  1  0.18561067  0.26797155  0.54357578  1
  F  F31  1  0.81438933  0.73202845  0.54357578  1
  F  F32  1  0.31438933  0.76797155  0.45642422  1
  F  F33  1  0.68561067  0.23202845  0.45642422  1
  F  F34  1  0.81438933  0.73202845  0.45642422  1
  F  F35  1  0.18561067  0.26797155  0.45642422  1
  F  F36  1  0.68561067  0.23202845  0.54357578  1
  F  F37  1  0.31438933  0.76797155  0.54357578  1
  F  F38  1  0.00000000  0.50000000  0.50000000  1
  F  F39  1  0.50000000  0.00000000  0.50000000  1
  Li  Li40  1  0.00000000  0.50000000  0.00000000  1
  Li  Li41  1  0.50000000  0.00000000  0.00000000  1
  Li  Li42  1  0.00000000  0.00000000  0.00000000  1
  Li  Li43  1  0.50000000  0.50000000  -0.00000000  1
  Li  Li44  1  0.61412089  0.19737978  -0.00000000  1
  Li  Li45  1  0.38587911  0.80262022  0.00000000  1
  Li  Li46  1  0.88587911  0.69737978  -0.00000000  1
  Li  Li47  1  0.11412089  0.30262022  0.00000000  1
  Li  Li48  1  0.24136775  0.95658596  -0.00000000  1
  Li  Li49  1  0.75863225  0.04341404  -0.00000000  1
  Li  Li50  1  0.25863225  0.45658596  0.00000000  1
  Li  Li51  1  0.74136775  0.54341404  -0.00000000  1
  Li  Li52  1  0.82896733  0.20151279  0.08502817  1
  Li  Li53  1  -0.82896733  -0.20151279  0.08502817  1
  Li  Li54  1  -0.32896733  0.70151279  -0.08502817  1
  Li  Li55  1  1.32896733  0.29848721  -0.08502817  1
  Li  Li56  1  -0.82896733  -0.20151279  -0.08502817  1
  Li  Li57  1  0.82896733  0.20151279  -0.08502817  1
  Li  Li58  1  1.32896733  0.29848721  0.08502817  1
  Li  Li59  1  -0.32896733  0.70151279  0.08502817  1
  Li  Li60  1  0.89245246  0.56663778  0.09985099  1
  Li  Li61  1  0.10754754  0.43336222  0.09985099  1
  Li  Li62  1  0.60754754  0.06663778  0.90014901  1
  Li  Li63  1  0.39245246  0.93336222  0.90014901  1
  Li  Li64  1  0.10754754  0.43336222  0.90014901  1
  Li  Li65  1  0.89245246  0.56663778  0.90014901  1
  Li  Li66  1  0.39245246  0.93336222  0.09985099  1
  Li  Li67  1  0.60754754  0.06663778  0.09985099  1
  Li  Li68  1  0.44715388  0.39974143  0.77727841  1
  Li  Li69  1  0.55284612  0.60025857  0.77727841  1
  Li  Li70  1  0.05284612  0.89974143  0.22272159  1
  Li  Li71  1  0.94715388  0.10025857  0.22272159  1
  Li  Li72  1  0.55284612  0.60025857  0.22272159  1
  Li  Li73  1  0.44715388  0.39974143  0.22272159  1
  Li  Li74  1  0.94715388  0.10025857  0.77727841  1
  Li  Li75  1  0.05284612  0.89974143  0.77727841  1
  Li  Li76  1  0.84597692  0.50165016  0.50000000  1
  Li  Li77  1  0.15402308  0.49834984  0.50000000  1
  Li  Li78  1  0.65402308  0.00165016  0.50000000  1
  Li  Li79  1  0.34597692  0.99834984  0.50000000  1
