# generated using pymatgen
data_Li2AlOF
_symmetry_space_group_name_H-M   'P 1'
_cell_length_a   3.38689558
_cell_length_b   3.42165859
_cell_length_c   5.80450166
_cell_angle_alpha   102.46253848
_cell_angle_beta   110.51080593
_cell_angle_gamma   112.53111666
_symmetry_Int_Tables_number   1
_chemical_formula_structural   Li2AlOF
_chemical_formula_sum   'Li2 Al1 O1 F1'
_cell_volume   53.21691938
_cell_formula_units_Z   1
loop_
 _symmetry_equiv_pos_site_id
 _symmetry_equiv_pos_as_xyz
  1  'x, y, z'
loop_
 _atom_site_type_symbol
 _atom_site_label
 _atom_site_symmetry_multiplicity
 _atom_site_fract_x
 _atom_site_fract_y
 _atom_site_fract_z
 _atom_site_occupancy
  F  F0  1  0.00000000  0.00000000  0.00000000  1
  O  O1  1  0.33300000  0.66700000  0.25000000  1
  Al  Al2  1  0.66700000  0.33300000  0.50000000  1
  Li  Li3  1  0.00000000  0.00000000  0.75000000  1
  Li  Li4  1  0.85576587  0.70741136  0.20831219  1
