# generated using pymatgen
data_Li3Y2P3Se
_symmetry_space_group_name_H-M   'P 1'
_cell_length_a   6.10774391
_cell_length_b   6.34124108
_cell_length_c   7.21373776
_cell_angle_alpha   91.79882423
_cell_angle_beta   94.42917818
_cell_angle_gamma   97.84302617
_symmetry_Int_Tables_number   1
_chemical_formula_structural   Li3Y2P3Se
_chemical_formula_sum   'Li3 Y2 P3 Se1'
_cell_volume   275.70405529
_cell_formula_units_Z   1
loop_
 _symmetry_equiv_pos_site_id
 _symmetry_equiv_pos_as_xyz
  1  'x, y, z'
loop_
 _atom_site_type_symbol
 _atom_site_label
 _atom_site_symmetry_multiplicity
 _atom_site_fract_x
 _atom_site_fract_y
 _atom_site_fract_z
 _atom_site_occupancy
  Se  Se0  1  0.00000000  0.00000000  0.00000000  1
  P  P1  1  0.50000000  0.50000000  0.50000000  1
  P  P2  1  0.50000000  0.50000000  0.00000000  1
  P  P3  1  0.50000000  0.00000000  0.50000000  1
  Li  Li4  1  0.00000000  0.50000000  0.50000000  1
  Li  Li5  1  0.45634082  0.94162513  0.88531863  1
  Li  Li6  1  0.09441940  0.18321855  0.50774067  1
  Y  Y7  1  0.63118835  0.49555253  0.71730413  1
  Y  Y8  1  0.53006194  0.43387727  0.25444117  1
