# generated using pymatgen
data_LiF
_symmetry_space_group_name_H-M   'P 1'
_cell_length_a   6.15248284
_cell_length_b   9.66431745
_cell_length_c   10.14717674
_cell_angle_alpha   90.00000000
_cell_angle_beta   90.00000000
_cell_angle_gamma   90.00000000
_symmetry_Int_Tables_number   1
_chemical_formula_structural   LiF
_chemical_formula_sum   'Li30 F30'
_cell_volume   603.34653432
_cell_formula_units_Z   30
loop_
 _symmetry_equiv_pos_site_id
 _symmetry_equiv_pos_as_xyz
  1  'x, y, z'
loop_
 _atom_site_type_symbol
 _atom_site_label
 _atom_site_symmetry_multiplicity
 _atom_site_fract_x
 _atom_site_fract_y
 _atom_site_fract_z
 _atom_site_occupancy
  F  F0  1  0.74174484  0.57615989  0.39144484  1
  F  F1  1  0.25825516  0.42384011  0.39144484  1
  F  F2  1  0.75825516  0.07615989  0.60855516  1
  F  F3  1  0.24174484  0.92384011  0.60855516  1
  F  F4  1  0.25825516  0.42384011  0.60855516  1
  F  F5  1  0.74174484  0.57615989  0.60855516  1
  F  F6  1  0.24174484  0.92384011  0.39144484  1
  F  F7  1  0.75825516  0.07615989  0.39144484  1
  F  F8  1  0.04749414  0.70095653  0.84410083  1
  F  F9  1  0.95250586  0.29904347  0.84410083  1
  F  F10  1  0.45250586  0.20095653  0.15589917  1
  F  F11  1  0.54749414  0.79904347  0.15589917  1
  F  F12  1  0.95250586  0.29904347  0.15589917  1
  F  F13  1  0.04749414  0.70095653  0.15589917  1
  F  F14  1  0.54749414  0.79904347  0.84410083  1
  F  F15  1  0.45250586  0.20095653  0.84410083  1
  F  F16  1  0.19521849  0.82509416  0.44046117  1
  F  F17  1  0.80478151  0.17490584  0.44046117  1
  F  F18  1  0.30478151  0.32509416  0.55953883  1
  F  F19  1  0.69521849  0.67490584  0.55953883  1
  F  F20  1  0.80478151  0.17490584  0.55953883  1
  F  F21  1  0.19521849  0.82509416  0.55953883  1
  F  F22  1  0.69521849  0.67490584  0.44046117  1
  F  F23  1  0.30478151  0.32509416  0.44046117  1
  F  F24  1  0.00000000  0.50000000  0.92433161  1
  F  F25  1  0.50000000  0.00000000  0.07566839  1
  F  F26  1  0.00000000  0.50000000  0.07566839  1
  F  F27  1  0.50000000  0.00000000  0.92433161  1
  F  F28  1  0.00000000  0.50000000  0.00000000  1
  F  F29  1  0.50000000  0.00000000  0.00000000  1
  Li  Li30  1  0.00000000  0.00000000  0.50000000  1
  Li  Li31  1  0.50000000  0.50000000  0.50000000  1
  Li  Li32  1  0.48963837  0.73907189  0.00000000  1
  Li  Li33  1  0.51036163  0.26092811  -0.00000000  1
  Li  Li34  1  0.01036163  0.23907189  0.00000000  1
  Li  Li35  1  0.98963837  0.76092811  -0.00000000  1
  Li  Li36  1  0.94951372  0.37706190  0.65826274  1
  Li  Li37  1  -0.94951372  -0.37706190  0.65826274  1
  Li  Li38  1  -0.44951372  0.87706190  -0.65826274  1
  Li  Li39  1  1.44951372  0.12293810  -0.65826274  1
  Li  Li40  1  -0.94951372  -0.37706190  -0.65826274  1
  Li  Li41  1  0.94951372  0.37706190  -0.65826274  1
  Li  Li42  1  1.44951372  0.12293810  0.65826274  1
  Li  Li43  1  -0.44951372  0.87706190  0.65826274  1
  Li  Li44  1  0.00000000  0.50000000  0.71523483  1
  Li  Li45  1  0.50000000  0.00000000  0.28476517  1
  Li  Li46  1  0.00000000  0.50000000  0.28476517  1
  Li  Li47  1  0.50000000  0.00000000  0.71523483  1
  Li  Li48  1  0.33591708  0.34612393  0.91910976  1
  Li  Li49  1  0.66408292  0.65387607  0.91910976  1
  Li  Li50  1  0.16408292  0.84612393  0.08089024  1
  Li  Li51  1  0.83591708  0.15387607  0.08089024  1
  Li  Li52  1  0.66408292  0.65387607  0.08089024  1
  Li  Li53  1  0.33591708  0.34612393  0.08089024  1
  Li  Li54  1  0.83591708  0.15387607  0.91910976  1
  Li  Li55  1  0.16408292  0.84612393  0.91910976  1
  Li  Li56  1  0.69715223  0.54924273  0.50000000  1
  Li  Li57  1  0.30284777  0.45075727  0.50000000  1
  Li  Li58  1  0.80284777  0.04924273  0.50000000  1
  Li  Li59  1  0.19715223  0.95075727  0.50000000  1
