# generated using pymatgen
data_LiY2Te4(PSe)2
_symmetry_space_group_name_H-M   'P 1'
_cell_length_a   4.80027672
_cell_length_b   5.05041186
_cell_length_c   6.93835114
_cell_angle_alpha   95.00405096
_cell_angle_beta   100.25305238
_cell_angle_gamma   109.08817616
_symmetry_Int_Tables_number   1
_chemical_formula_structural   LiY2Te4(PSe)2
_chemical_formula_sum   'Li1 Y2 Te4 P2 Se2'
_cell_volume   154.49709198
_cell_formula_units_Z   1
loop_
 _symmetry_equiv_pos_site_id
 _symmetry_equiv_pos_as_xyz
  1  'x, y, z'
loop_
 _atom_site_type_symbol
 _atom_site_label
 _atom_site_symmetry_multiplicity
 _atom_site_fract_x
 _atom_site_fract_y
 _atom_site_fract_z
 _atom_site_occupancy
  Se  Se0  1  0.00000000  0.00000000  0.00000000  1
  Se  Se1  1  0.50000000  0.50000000  0.50000000  1
  Te  Te2  1  0.25000000  0.25000000  0.25000000  1
  Te  Te3  1  0.75000000  0.25000000  0.00000000  1
  Te  Te4  1  0.25000000  0.75000000  0.50000000  1
  Te  Te5  1  0.33571293  0.97151409  0.90439363  1
  Y  Y6  1  0.55385170  0.53153032  0.32571623  1
  Y  Y7  1  0.21237215  0.63236973  0.32074857  1
  P  P8  1  0.56618792  0.59190099  0.31278015  1
  P  P9  1  0.76267055  0.44954781  0.75666854  1
  Li  Li10  1  0.66853385  0.60738176  0.09427764  1
