# generated using pymatgen
data_LiY2Te4MoP2
_symmetry_space_group_name_H-M   'P 1'
_cell_length_a   5.34024196
_cell_length_b   5.56200528
_cell_length_c   7.09611170
_cell_angle_alpha   94.22438309
_cell_angle_beta   98.56455792
_cell_angle_gamma   105.97139609
_symmetry_Int_Tables_number   1
_chemical_formula_structural   LiY2Te4MoP2
_chemical_formula_sum   'Li1 Y2 Te4 Mo1 P2'
_cell_volume   198.91409708
_cell_formula_units_Z   1
loop_
 _symmetry_equiv_pos_site_id
 _symmetry_equiv_pos_as_xyz
  1  'x, y, z'
loop_
 _atom_site_type_symbol
 _atom_site_label
 _atom_site_symmetry_multiplicity
 _atom_site_fract_x
 _atom_site_fract_y
 _atom_site_fract_z
 _atom_site_occupancy
  Te  Te0  1  0.00000000  0.00000000  0.00000000  1
  Te  Te1  1  0.50000000  0.50000000  0.50000000  1
  Te  Te2  1  0.25000000  0.25000000  0.25000000  1
  Te  Te3  1  0.75000000  0.25000000  0.00000000  1
  P  P4  1  0.25000000  0.75000000  0.50000000  1
  P  P5  1  0.76015501  0.53739013  0.46917504  1
  Mo  Mo6  1  0.19747776  0.79102991  0.88013564  1
  Li  Li7  1  0.21825881  0.75376379  0.79888751  1
  Y  Y8  1  0.98996914  0.35963616  0.96886748  1
  Y  Y9  1  0.41206710  0.89487247  0.40727445  1
