# generated using pymatgen
data_Li2As4P3(NF)4
_symmetry_space_group_name_H-M   'P 1'
_cell_length_a   5.78769643
_cell_length_b   5.41650215
_cell_length_c   7.47184683
_cell_angle_alpha   93.80621525
_cell_angle_beta   98.28914552
_cell_angle_gamma   105.28805390
_symmetry_Int_Tables_number   1
_chemical_formula_structural   Li2As4P3(NF)4
_chemical_formula_sum   'Li2 As4 P3 N4 F4'
_cell_volume   222.24477466
_cell_formula_units_Z   1
loop_
 _symmetry_equiv_pos_site_id
 _symmetry_equiv_pos_as_xyz
  1  'x, y, z'
loop_
 _atom_site_type_symbol
 _atom_site_label
 _atom_site_symmetry_multiplicity
 _atom_site_fract_x
 _atom_site_fract_y
 _atom_site_fract_z
 _atom_site_occupancy
  F  F0  1  0.00000000  0.00000000  0.00000000  1
  F  F1  1  0.50000000  0.50000000  0.50000000  1
  F  F2  1  0.25000000  0.25000000  0.25000000  1
  F  F3  1  0.75000000  0.25000000  0.00000000  1
  N  N4  1  0.25000000  0.75000000  0.50000000  1
  N  N5  1  0.16552536  0.91005504  0.70794464  1
  N  N6  1  0.72223741  0.92387230  0.93857656  1
  N  N7  1  0.88633478  0.50550546  0.54776760  1
  P  P8  1  0.84723765  0.71410405  0.31251510  1
  P  P9  1  0.56165739  0.55607310  0.35971363  1
  P  P10  1  0.80711601  0.00047760  0.13711451  1
  Li  Li11  1  0.04465971  0.79812916  0.00855126  1
  Li  Li12  1  0.52426979  0.30389610  0.86838468  1
  As  As13  1  0.80440809  0.11809273  0.53864264  1
  As  As14  1  0.92216558  0.67322491  0.85601405  1
  As  As15  1  0.59063343  0.59125125  0.48637330  1
  As  As16  1  0.02454076  0.29114585  0.62891159  1
