# generated using pymatgen
data_Li2Ca3F8
_symmetry_space_group_name_H-M   'P 1'
_cell_length_a   14.80553146
_cell_length_b   14.80553146
_cell_length_c   10.94817355
_cell_angle_alpha   90.00000000
_cell_angle_beta   90.00000000
_cell_angle_gamma   90.00000000
_symmetry_Int_Tables_number   1
_chemical_formula_structural   Li2Ca3F8
_chemical_formula_sum   'Li16 Ca24 F64'
_cell_volume   2399.88082552
_cell_formula_units_Z   8
loop_
 _symmetry_equiv_pos_site_id
 _symmetry_equiv_pos_as_xyz
  1  'x, y, z'
loop_
 _atom_site_type_symbol
 _atom_site_label
 _atom_site_symmetry_multiplicity
 _atom_site_fract_x
 _atom_site_fract_y
 _atom_site_fract_z
 _atom_site_occupancy
  Ca  Ca0  1  0.26836706  0.51836706  0.12500000  1
  Ca  Ca1  1  0.23163294  0.48163294  0.62500000  1
  Ca  Ca2  1  0.73163294  0.01836706  0.37500000  1
  Ca  Ca3  1  0.76836706  0.98163294  0.87500000  1
  Ca  Ca4  1  0.73163294  0.48163294  0.87500000  1
  Ca  Ca5  1  0.76836706  0.51836706  0.37500000  1
  Ca  Ca6  1  0.26836706  0.98163294  0.62500000  1
  Ca  Ca7  1  0.23163294  0.01836706  0.12500000  1
  Ca  Ca8  1  0.76836706  0.01836706  0.62500000  1
  Ca  Ca9  1  0.73163294  0.98163294  0.12500000  1
  Ca  Ca10  1  0.23163294  0.51836706  0.87500000  1
  Ca  Ca11  1  0.26836706  0.48163294  0.37500000  1
  Ca  Ca12  1  0.23163294  0.98163294  0.37500000  1
  Ca  Ca13  1  0.26836706  0.01836706  0.87500000  1
  Ca  Ca14  1  0.76836706  0.48163294  0.12500000  1
  Ca  Ca15  1  0.73163294  0.51836706  0.62500000  1
  Ca  Ca16  1  0.00000000  0.25000000  0.37500000  1
  Ca  Ca17  1  0.00000000  0.75000000  0.62500000  1
  Ca  Ca18  1  0.50000000  0.25000000  0.62500000  1
  Ca  Ca19  1  0.50000000  0.75000000  0.37500000  1
  Ca  Ca20  1  0.50000000  0.75000000  0.87500000  1
  Ca  Ca21  1  0.50000000  0.25000000  0.12500000  1
  Ca  Ca22  1  0.00000000  0.75000000  0.12500000  1
  Ca  Ca23  1  0.00000000  0.25000000  0.87500000  1
  F  F24  1  0.64872478  0.00000000  0.25000000  1
  F  F25  1  0.85127522  0.00000000  0.75000000  1
  F  F26  1  0.25000000  0.39872478  0.50000000  1
  F  F27  1  0.25000000  0.60127522  0.00000000  1
  F  F28  1  0.35127522  0.00000000  0.75000000  1
  F  F29  1  0.14872478  0.00000000  0.25000000  1
  F  F30  1  0.75000000  0.60127522  0.50000000  1
  F  F31  1  0.75000000  0.39872478  0.00000000  1
  F  F32  1  0.14872478  0.50000000  0.75000000  1
  F  F33  1  0.35127522  0.50000000  0.25000000  1
  F  F34  1  0.75000000  0.89872478  -0.00000000  1
  F  F35  1  0.75000000  0.10127522  0.50000000  1
  F  F36  1  0.85127522  0.50000000  0.25000000  1
  F  F37  1  0.64872478  0.50000000  0.75000000  1
  F  F38  1  0.25000000  0.10127522  0.00000000  1
  F  F39  1  0.25000000  0.89872478  0.50000000  1
  F  F40  1  0.22978444  0.77190634  0.56951815  1
  F  F41  1  0.27021556  -0.77190634  1.06951815  1
  F  F42  1  -0.52190634  0.97978444  0.81951815  1
  F  F43  1  1.02190634  0.02021556  1.31951815  1
  F  F44  1  0.27021556  0.77190634  -0.56951815  1
  F  F45  1  0.22978444  -0.77190634  -0.06951815  1
  F  F46  1  1.02190634  0.97978444  0.18048185  1
  F  F47  1  -0.52190634  0.02021556  -0.31951815  1
  F  F48  1  -0.22978444  -0.77190634  -0.56951815  1
  F  F49  1  0.72978444  0.77190634  -0.06951815  1
  F  F50  1  1.52190634  0.02021556  0.18048185  1
  F  F51  1  -0.02190634  0.97978444  -0.31951815  1
  F  F52  1  0.72978444  -0.77190634  0.56951815  1
  F  F53  1  -0.22978444  0.77190634  1.06951815  1
  F  F54  1  -0.02190634  0.02021556  0.81951815  1
  F  F55  1  1.52190634  0.97978444  1.31951815  1
  F  F56  1  0.72978444  1.27190634  1.06951815  1
  F  F57  1  0.77021556  -0.27190634  1.56951815  1
  F  F58  1  -0.02190634  1.47978444  1.31951815  1
  F  F59  1  1.52190634  0.52021556  1.81951815  1
  F  F60  1  0.77021556  1.27190634  -0.06951815  1
  F  F61  1  0.72978444  -0.27190634  0.43048185  1
  F  F62  1  1.52190634  1.47978444  0.68048185  1
  F  F63  1  -0.02190634  0.52021556  0.18048185  1
  F  F64  1  0.27021556  -0.27190634  -0.06951815  1
  F  F65  1  1.22978444  1.27190634  0.43048185  1
  F  F66  1  2.02190634  0.52021556  0.68048185  1
  F  F67  1  0.47809366  1.47978444  0.18048185  1
  F  F68  1  1.22978444  -0.27190634  1.06951815  1
  F  F69  1  0.27021556  1.27190634  1.56951815  1
  F  F70  1  0.47809366  0.52021556  1.31951815  1
  F  F71  1  2.02190634  1.47978444  1.81951815  1
  F  F72  1  0.38982530  0.00000000  0.25000000  1
  F  F73  1  0.11017470  0.00000000  0.75000000  1
  F  F74  1  0.25000000  0.13982530  0.50000000  1
  F  F75  1  0.25000000  0.86017470  0.00000000  1
  F  F76  1  0.61017470  0.00000000  0.75000000  1
  F  F77  1  0.88982530  0.00000000  0.25000000  1
  F  F78  1  0.75000000  0.86017470  0.50000000  1
  F  F79  1  0.75000000  0.13982530  -0.00000000  1
  F  F80  1  0.88982530  0.50000000  0.75000000  1
  F  F81  1  0.61017470  0.50000000  0.25000000  1
  F  F82  1  0.75000000  0.63982530  0.00000000  1
  F  F83  1  0.75000000  0.36017470  0.50000000  1
  F  F84  1  0.11017470  0.50000000  0.25000000  1
  F  F85  1  0.38982530  0.50000000  0.75000000  1
  F  F86  1  0.25000000  0.36017470  0.00000000  1
  F  F87  1  0.25000000  0.63982530  0.50000000  1
  Li  Li88  1  0.00000000  0.25000000  0.55339774  1
  Li  Li89  1  0.00000000  0.75000000  0.80339774  1
  Li  Li90  1  0.50000000  0.25000000  0.44660226  1
  Li  Li91  1  0.50000000  0.75000000  0.19660226  1
  Li  Li92  1  0.00000000  0.75000000  0.44660226  1
  Li  Li93  1  0.00000000  0.25000000  0.19660226  1
  Li  Li94  1  0.50000000  0.75000000  0.55339774  1
  Li  Li95  1  0.50000000  0.25000000  0.80339774  1
  Li  Li96  1  0.50000000  0.75000000  0.05339774  1
  Li  Li97  1  0.50000000  0.25000000  0.30339774  1
  Li  Li98  1  0.00000000  0.75000000  0.94660226  1
  Li  Li99  1  0.00000000  0.25000000  0.69660226  1
  Li  Li100  1  0.50000000  0.25000000  0.94660226  1
  Li  Li101  1  0.50000000  0.75000000  0.69660226  1
  Li  Li102  1  0.00000000  0.25000000  0.05339774  1
  Li  Li103  1  0.00000000  0.75000000  0.30339774  1
