# generated using pymatgen
data_LiYAs2P
_symmetry_space_group_name_H-M   'P 1'
_cell_length_a   5.18873781
_cell_length_b   5.26191000
_cell_length_c   6.74003966
_cell_angle_alpha   94.14182967
_cell_angle_beta   98.11587619
_cell_angle_gamma   105.21810930
_symmetry_Int_Tables_number   1
_chemical_formula_structural   LiYAs2P
_chemical_formula_sum   'Li2 Y2 As4 P2'
_cell_volume   174.63559458
_cell_formula_units_Z   2
loop_
 _symmetry_equiv_pos_site_id
 _symmetry_equiv_pos_as_xyz
  1  'x, y, z'
loop_
 _atom_site_type_symbol
 _atom_site_label
 _atom_site_symmetry_multiplicity
 _atom_site_fract_x
 _atom_site_fract_y
 _atom_site_fract_z
 _atom_site_occupancy
  Y  Y0  1  0.12500000  0.12500000  0.12500000  1
  Y  Y1  1  0.50000000  0.50000000  0.50000000  1
  P  P2  1  0.25000000  0.25000000  0.25000000  1
  P  P3  1  0.75000000  0.75000000  0.75000000  1
  As  As4  1  0.71984189  0.92836716  0.97440103  1
  As  As5  1  0.48999647  0.30203535  0.42685759  1
  As  As6  1  0.03106866  0.71599696  0.14267597  1
  As  As7  1  0.49499587  0.80589458  0.37866483  1
  Li  Li8  1  0.01471799  0.77883335  0.68713359  1
  Li  Li9  1  0.65992045  0.80224115  0.88577589  1
