# generated using pymatgen
data_Li3Y2Mo(PSe)2
_symmetry_space_group_name_H-M   'P 1'
_cell_length_a   6.29402645
_cell_length_b   6.51241553
_cell_length_c   7.38386507
_cell_angle_alpha   92.01993576
_cell_angle_beta   94.64176585
_cell_angle_gamma   98.40640484
_symmetry_Int_Tables_number   1
_chemical_formula_structural   Li3Y2Mo(PSe)2
_chemical_formula_sum   'Li3 Y2 Mo1 P2 Se2'
_cell_volume   298.08543767
_cell_formula_units_Z   1
loop_
 _symmetry_equiv_pos_site_id
 _symmetry_equiv_pos_as_xyz
  1  'x, y, z'
loop_
 _atom_site_type_symbol
 _atom_site_label
 _atom_site_symmetry_multiplicity
 _atom_site_fract_x
 _atom_site_fract_y
 _atom_site_fract_z
 _atom_site_occupancy
  Se  Se0  1  0.12500000  0.00000000  0.25000000  1
  Se  Se1  1  0.00000000  0.00000000  0.00000000  1
  P  P2  1  0.37500000  0.00000000  0.25000000  1
  P  P3  1  0.25000000  0.25000000  0.25000000  1
  Mo  Mo4  1  0.00000000  0.25000000  0.12500000  1
  Li  Li5  1  0.97020863  0.51526757  0.03536389  1
  Li  Li6  1  0.35976999  0.30853026  0.46073206  1
  Li  Li7  1  0.79915796  0.46794310  0.43035215  1
  Y  Y8  1  0.36861059  0.16266934  0.31730482  1
  Y  Y9  1  0.10774849  0.83039320  0.55658829  1
