# generated using pymatgen
data_LiF
_symmetry_space_group_name_H-M   'P 1'
_cell_length_a   6.43051725
_cell_length_b   6.43051725
_cell_length_c   15.23026975
_cell_angle_alpha   90.00000000
_cell_angle_beta   90.00000000
_cell_angle_gamma   120.00000000
_symmetry_Int_Tables_number   1
_chemical_formula_structural   LiF
_chemical_formula_sum   'Li18 F18'
_cell_volume   545.41872302
_cell_formula_units_Z   18
loop_
 _symmetry_equiv_pos_site_id
 _symmetry_equiv_pos_as_xyz
  1  'x, y, z'
loop_
 _atom_site_type_symbol
 _atom_site_label
 _atom_site_symmetry_multiplicity
 _atom_site_fract_x
 _atom_site_fract_y
 _atom_site_fract_z
 _atom_site_occupancy
  F  F0  1  0.90091724  0.99605306  0.35962320  1
  F  F1  1  0.00394694  0.90486417  0.35962320  1
  F  F2  1  0.09513583  0.09908276  0.35962320  1
  F  F3  1  0.00394694  0.09908276  0.64037680  1
  F  F4  1  0.09513583  0.99605306  0.64037680  1
  F  F5  1  0.90091724  0.90486417  0.64037680  1
  F  F6  1  0.22122726  0.26816009  0.07237594  1
  F  F7  1  0.73183991  0.95306717  0.07237594  1
  F  F8  1  0.04693283  0.77877274  0.07237594  1
  F  F9  1  0.73183991  0.77877274  0.92762406  1
  F  F10  1  0.04693283  0.26816009  0.92762406  1
  F  F11  1  0.22122726  0.95306717  0.92762406  1
  F  F12  1  0.33333333  0.66666667  0.73256008  1
  F  F13  1  0.33333333  0.66666667  0.26743992  1
  F  F14  1  0.00000000  0.00000000  0.53829677  1
  F  F15  1  0.00000000  0.00000000  0.46170323  1
  F  F16  1  0.00000000  0.00000000  0.67403073  1
  F  F17  1  0.00000000  0.00000000  0.32596927  1
  Li  Li18  1  0.91292793  0.08707207  0.50000000  1
  Li  Li19  1  0.91292793  0.82585586  0.50000000  1
  Li  Li20  1  0.17414414  0.08707207  0.50000000  1
  Li  Li21  1  0.90556990  0.09443010  -0.00000000  1
  Li  Li22  1  0.90556990  0.81113981  -0.00000000  1
  Li  Li23  1  0.18886019  0.09443010  0.00000000  1
  Li  Li24  1  0.00993243  0.67381941  0.59429461  1
  Li  Li25  1  -0.67381941  -0.66388698  0.59429461  1
  Li  Li26  1  0.66388698  -0.00993243  0.59429461  1
  Li  Li27  1  -0.67381941  -0.00993243  -0.59429461  1
  Li  Li28  1  0.66388698  0.67381941  -0.59429461  1
  Li  Li29  1  0.00993243  -0.66388698  -0.59429461  1
  Li  Li30  1  0.72173574  0.00361782  0.32779840  1
  Li  Li31  1  0.99638218  0.71811793  0.32779840  1
  Li  Li32  1  0.28188207  0.27826426  0.32779840  1
  Li  Li33  1  0.99638218  0.27826426  0.67220160  1
  Li  Li34  1  0.28188207  0.00361782  0.67220160  1
  Li  Li35  1  0.72173574  0.71811793  0.67220160  1
