# generated using pymatgen
data_LiF
_symmetry_space_group_name_H-M   'P 1'
_cell_length_a   11.50966103
_cell_length_b   14.08761148
_cell_length_c   10.41040651
_cell_angle_alpha   90.00000000
_cell_angle_beta   90.00000000
_cell_angle_gamma   90.00000000
_symmetry_Int_Tables_number   1
_chemical_formula_structural   LiF
_chemical_formula_sum   'Li48 F48'
_cell_volume   1687.98113200
_cell_formula_units_Z   48
loop_
 _symmetry_equiv_pos_site_id
 _symmetry_equiv_pos_as_xyz
  1  'x, y, z'
loop_
 _atom_site_type_symbol
 _atom_site_label
 _atom_site_symmetry_multiplicity
 _atom_site_fract_x
 _atom_site_fract_y
 _atom_site_fract_z
 _atom_site_occupancy
  F  F0  1  0.91022635  0.91062208  0.65762647  1
  F  F1  1  0.58977365  0.08937792  0.15762647  1
  F  F2  1  0.08977365  0.41062208  0.34237353  1
  F  F3  1  0.41022635  0.58937792  0.84237353  1
  F  F4  1  0.08977365  0.08937792  0.34237353  1
  F  F5  1  0.41022635  0.91062208  0.84237353  1
  F  F6  1  0.91022635  0.58937792  0.65762647  1
  F  F7  1  0.58977365  0.41062208  0.15762647  1
  F  F8  1  0.20744518  0.51611897  0.08962089  1
  F  F9  1  0.29255482  0.48388103  0.58962089  1
  F  F10  1  0.79255482  0.01611897  0.91037911  1
  F  F11  1  0.70744518  0.98388103  0.41037911  1
  F  F12  1  0.79255482  0.48388103  0.91037911  1
  F  F13  1  0.70744518  0.51611897  0.41037911  1
  F  F14  1  0.20744518  0.98388103  0.08962089  1
  F  F15  1  0.29255482  0.01611897  0.58962089  1
  F  F16  1  0.56100898  0.17948719  0.83018524  1
  F  F17  1  0.93899102  0.82051281  0.33018524  1
  F  F18  1  0.43899102  0.67948719  0.16981476  1
  F  F19  1  0.06100898  0.32051281  0.66981476  1
  F  F20  1  0.43899102  0.82051281  0.16981476  1
  F  F21  1  0.06100898  0.17948719  0.66981476  1
  F  F22  1  0.56100898  0.32051281  0.83018524  1
  F  F23  1  0.93899102  0.67948719  0.33018524  1
  F  F24  1  0.72556818  0.00830988  0.74887677  1
  F  F25  1  0.77443182  0.99169012  0.24887677  1
  F  F26  1  0.27443182  0.50830988  0.25112323  1
  F  F27  1  0.22556818  0.49169012  0.75112323  1
  F  F28  1  0.27443182  0.99169012  0.25112323  1
  F  F29  1  0.22556818  0.00830988  0.75112323  1
  F  F30  1  0.72556818  0.49169012  0.74887677  1
  F  F31  1  0.77443182  0.50830988  0.24887677  1
  F  F32  1  0.00000000  0.00000000  0.00000000  1
  F  F33  1  0.50000000  0.00000000  0.50000000  1
  F  F34  1  0.00000000  0.50000000  0.00000000  1
  F  F35  1  0.50000000  0.50000000  0.50000000  1
  F  F36  1  0.80083791  0.25000000  0.00909776  1
  F  F37  1  0.69916209  0.75000000  0.50909776  1
  F  F38  1  0.19916209  0.75000000  0.99090224  1
  F  F39  1  0.30083791  0.25000000  0.49090224  1
  F  F40  1  0.31870838  0.64715172  0.34909768  1
  F  F41  1  0.18129162  0.35284828  0.84909768  1
  F  F42  1  0.68129162  0.14715172  0.65090232  1
  F  F43  1  0.81870838  0.85284828  0.15090232  1
  F  F44  1  0.68129162  0.35284828  0.65090232  1
  F  F45  1  0.81870838  0.64715172  0.15090232  1
  F  F46  1  0.31870838  0.85284828  0.34909768  1
  F  F47  1  0.18129162  0.14715172  0.84909768  1
  Li  Li48  1  0.62320069  0.17400480  0.39763782  1
  Li  Li49  1  -0.12320069  -0.17400480  0.89763782  1
  Li  Li50  1  -0.62320069  0.67400480  -0.39763782  1
  Li  Li51  1  1.12320069  0.32599520  0.10236218  1
  Li  Li52  1  -0.62320069  -0.17400480  -0.39763782  1
  Li  Li53  1  1.12320069  0.17400480  0.10236218  1
  Li  Li54  1  0.62320069  0.32599520  0.39763782  1
  Li  Li55  1  -0.12320069  0.67400480  0.89763782  1
  Li  Li56  1  0.09984232  0.07176708  0.13865879  1
  Li  Li57  1  0.40015768  0.92823292  0.63865879  1
  Li  Li58  1  0.90015768  0.57176708  0.86134121  1
  Li  Li59  1  0.59984232  0.42823292  0.36134121  1
  Li  Li60  1  0.90015768  0.92823292  0.86134121  1
  Li  Li61  1  0.59984232  0.07176708  0.36134121  1
  Li  Li62  1  0.09984232  0.42823292  0.13865879  1
  Li  Li63  1  0.40015768  0.57176708  0.63865879  1
  Li  Li64  1  0.21241283  0.25000000  0.64484387  1
  Li  Li65  1  0.28758717  0.75000000  0.14484387  1
  Li  Li66  1  0.78758717  0.75000000  0.35515613  1
  Li  Li67  1  0.71241283  0.25000000  0.85515613  1
  Li  Li68  1  0.22556188  0.70084807  0.24715419  1
  Li  Li69  1  0.27443812  0.29915193  0.74715419  1
  Li  Li70  1  0.77443812  0.20084807  0.75284581  1
  Li  Li71  1  0.72556188  0.79915193  0.25284581  1
  Li  Li72  1  0.77443812  0.29915193  0.75284581  1
  Li  Li73  1  0.72556188  0.70084807  0.25284581  1
  Li  Li74  1  0.22556188  0.79915193  0.24715419  1
  Li  Li75  1  0.27443812  0.20084807  0.74715419  1
  Li  Li76  1  0.89558794  0.25000000  0.07029999  1
  Li  Li77  1  0.60441206  0.75000000  0.57029999  1
  Li  Li78  1  0.10441206  0.75000000  0.92970001  1
  Li  Li79  1  0.39558794  0.25000000  0.42970001  1
  Li  Li80  1  0.90548979  0.08361677  0.85232587  1
  Li  Li81  1  0.59451021  0.91638323  0.35232587  1
  Li  Li82  1  0.09451021  0.58361677  0.14767413  1
  Li  Li83  1  0.40548979  0.41638323  0.64767413  1
  Li  Li84  1  0.09451021  0.91638323  0.14767413  1
  Li  Li85  1  0.40548979  0.08361677  0.64767413  1
  Li  Li86  1  0.90548979  0.41638323  0.85232587  1
  Li  Li87  1  0.59451021  0.58361677  0.35232587  1
  Li  Li88  1  0.25597565  0.65044273  0.74245587  1
  Li  Li89  1  0.24402435  0.34955727  0.24245587  1
  Li  Li90  1  0.74402435  0.15044273  0.25754413  1
  Li  Li91  1  0.75597565  0.84955727  0.75754413  1
  Li  Li92  1  0.74402435  0.34955727  0.25754413  1
  Li  Li93  1  0.75597565  0.65044273  0.75754413  1
  Li  Li94  1  0.25597565  0.84955727  0.74245587  1
  Li  Li95  1  0.24402435  0.15044273  0.24245587  1
