# generated using pymatgen
data_LiF
_symmetry_space_group_name_H-M   'P 1'
_cell_length_a   6.21798078
_cell_length_b   8.57582144
_cell_length_c   8.62016018
_cell_angle_alpha   90.00000000
_cell_angle_beta   90.00000000
_cell_angle_gamma   90.00000000
_symmetry_Int_Tables_number   1
_chemical_formula_structural   LiF
_chemical_formula_sum   'Li16 F16'
_cell_volume   459.66394596
_cell_formula_units_Z   16
loop_
 _symmetry_equiv_pos_site_id
 _symmetry_equiv_pos_as_xyz
  1  'x, y, z'
loop_
 _atom_site_type_symbol
 _atom_site_label
 _atom_site_symmetry_multiplicity
 _atom_site_fract_x
 _atom_site_fract_y
 _atom_site_fract_z
 _atom_site_occupancy
  F  F0  1  0.93379430  0.67028650  0.31658893  1
  F  F1  1  -0.93379430  -0.67028650  0.31658893  1
  F  F2  1  -0.43379430  1.17028650  -0.31658893  1
  F  F3  1  1.43379430  -0.17028650  -0.31658893  1
  F  F4  1  -0.93379430  -0.67028650  -0.31658893  1
  F  F5  1  0.93379430  0.67028650  -0.31658893  1
  F  F6  1  1.43379430  -0.17028650  0.31658893  1
  F  F7  1  -0.43379430  1.17028650  0.31658893  1
  F  F8  1  0.70897270  0.54641269  0.04309423  1
  F  F9  1  0.29102730  0.45358731  0.04309423  1
  F  F10  1  0.79102730  0.04641269  0.95690577  1
  F  F11  1  0.20897270  0.95358731  0.95690577  1
  F  F12  1  0.29102730  0.45358731  0.95690577  1
  F  F13  1  0.70897270  0.54641269  0.95690577  1
  F  F14  1  0.20897270  0.95358731  0.04309423  1
  F  F15  1  0.79102730  0.04641269  0.04309423  1
  Li  Li16  1  0.47801008  0.66762180  0.00000000  1
  Li  Li17  1  0.52198992  0.33237820  0.00000000  1
  Li  Li18  1  0.02198992  0.16762180  0.00000000  1
  Li  Li19  1  0.97801008  0.83237820  0.00000000  1
  Li  Li20  1  0.77292030  0.30212752  0.50000000  1
  Li  Li21  1  0.22707970  0.69787248  0.50000000  1
  Li  Li22  1  0.72707970  0.80212752  0.50000000  1
  Li  Li23  1  0.27292030  0.19787248  0.50000000  1
  Li  Li24  1  0.00000000  0.00000000  0.00000000  1
  Li  Li25  1  0.50000000  0.50000000  0.00000000  1
  Li  Li26  1  0.00000000  0.00000000  0.50000000  1
  Li  Li27  1  0.50000000  0.50000000  0.50000000  1
  Li  Li28  1  0.00000000  0.50000000  0.14950121  1
  Li  Li29  1  0.50000000  0.00000000  0.85049879  1
  Li  Li30  1  0.00000000  0.50000000  0.85049879  1
  Li  Li31  1  0.50000000  0.00000000  0.14950121  1
