# generated using pymatgen
data_Li2Si4Te3F12
_symmetry_space_group_name_H-M   'P 1'
_cell_length_a   13.11030992
_cell_length_b   9.93864765
_cell_length_c   12.58906027
_cell_angle_alpha   90.00000000
_cell_angle_beta   90.00000000
_cell_angle_gamma   90.00000000
_symmetry_Int_Tables_number   1
_chemical_formula_structural   Li2Si4Te3F12
_chemical_formula_sum   'Li8 Si16 Te12 F48'
_cell_volume   1640.33882873
_cell_formula_units_Z   4
loop_
 _symmetry_equiv_pos_site_id
 _symmetry_equiv_pos_as_xyz
  1  'x, y, z'
loop_
 _atom_site_type_symbol
 _atom_site_label
 _atom_site_symmetry_multiplicity
 _atom_site_fract_x
 _atom_site_fract_y
 _atom_site_fract_z
 _atom_site_occupancy
  F  F0  1  0.22651863  0.01444887  0.67408687  1
  F  F1  1  0.77348137  0.98555113  0.67408687  1
  F  F2  1  0.27348137  0.51444887  0.82591313  1
  F  F3  1  0.72651863  0.48555113  0.82591313  1
  F  F4  1  0.77348137  0.98555113  0.32591313  1
  F  F5  1  0.22651863  0.01444887  0.32591313  1
  F  F6  1  0.72651863  0.48555113  0.17408687  1
  F  F7  1  0.27348137  0.51444887  0.17408687  1
  F  F8  1  0.33013006  0.84585665  0.19891990  1
  F  F9  1  0.66986994  0.15414335  0.19891990  1
  F  F10  1  0.16986994  0.34585665  0.30108010  1
  F  F11  1  0.83013006  0.65414335  0.30108010  1
  F  F12  1  0.66986994  0.15414335  0.80108010  1
  F  F13  1  0.33013006  0.84585665  0.80108010  1
  F  F14  1  0.83013006  0.65414335  0.69891990  1
  F  F15  1  0.16986994  0.34585665  0.69891990  1
  F  F16  1  0.60644020  0.46969477  0.12412222  1
  F  F17  1  0.39355980  0.53030523  0.12412222  1
  F  F18  1  0.89355980  0.96969477  0.37587778  1
  F  F19  1  0.10644020  0.03030523  0.37587778  1
  F  F20  1  0.39355980  0.53030523  0.87587778  1
  F  F21  1  0.60644020  0.46969477  0.87587778  1
  F  F22  1  0.10644020  0.03030523  0.62412222  1
  F  F23  1  0.89355980  0.96969477  0.62412222  1
  F  F24  1  0.50005093  0.19871226  0.56240183  1
  F  F25  1  0.49994907  0.80128774  0.56240183  1
  F  F26  1  0.99994907  0.69871226  0.93759817  1
  F  F27  1  0.00005093  0.30128774  0.93759817  1
  F  F28  1  0.49994907  0.80128774  0.43759817  1
  F  F29  1  0.50005093  0.19871226  0.43759817  1
  F  F30  1  0.00005093  0.30128774  0.06240183  1
  F  F31  1  0.99994907  0.69871226  0.06240183  1
  F  F32  1  0.00184671  0.07494302  0.35879168  1
  F  F33  1  0.99815329  0.92505698  0.35879168  1
  F  F34  1  0.49815329  0.57494302  0.14120832  1
  F  F35  1  0.50184671  0.42505698  0.14120832  1
  F  F36  1  0.99815329  0.92505698  0.64120832  1
  F  F37  1  0.00184671  0.07494302  0.64120832  1
  F  F38  1  0.50184671  0.42505698  0.85879168  1
  F  F39  1  0.49815329  0.57494302  0.85879168  1
  F  F40  1  0.55959625  0.98519760  0.09560997  1
  F  F41  1  0.44040375  0.01480240  0.09560997  1
  F  F42  1  0.94040375  0.48519760  0.40439003  1
  F  F43  1  0.05959625  0.51480240  0.40439003  1
  F  F44  1  0.44040375  0.01480240  0.90439003  1
  F  F45  1  0.55959625  0.98519760  0.90439003  1
  F  F46  1  0.05959625  0.51480240  0.59560997  1
  F  F47  1  0.94040375  0.48519760  0.59560997  1
  Li  Li48  1  0.46207600  0.34008583  -0.00000000  1
  Li  Li49  1  0.53792400  0.65991417  -0.00000000  1
  Li  Li50  1  0.03792400  0.84008583  0.50000000  1
  Li  Li51  1  0.96207600  0.15991417  0.50000000  1
  Li  Li52  1  0.72099266  0.34513900  -0.00000000  1
  Li  Li53  1  0.27900734  0.65486100  -0.00000000  1
  Li  Li54  1  0.77900734  0.84513900  0.50000000  1
  Li  Li55  1  0.22099266  0.15486100  0.50000000  1
  Si  Si56  1  0.38222770  0.19258413  0.81735157  1
  Si  Si57  1  -0.38222770  -0.19258413  0.81735157  1
  Si  Si58  1  0.11777230  0.69258413  -0.31735157  1
  Si  Si59  1  0.88222770  0.30741587  -0.31735157  1
  Si  Si60  1  -0.38222770  -0.19258413  -0.81735157  1
  Si  Si61  1  0.38222770  0.19258413  -0.81735157  1
  Si  Si62  1  0.88222770  0.30741587  1.31735157  1
  Si  Si63  1  0.11777230  0.69258413  1.31735157  1
  Si  Si64  1  0.45175850  0.02347637  0.00000000  1
  Si  Si65  1  0.54824150  0.97652363  0.00000000  1
  Si  Si66  1  0.04824150  0.52347637  0.50000000  1
  Si  Si67  1  0.95175850  0.47652363  0.50000000  1
  Si  Si68  1  0.00000000  0.50000000  0.00000000  1
  Si  Si69  1  0.50000000  0.00000000  0.50000000  1
  Si  Si70  1  0.00000000  0.00000000  0.50000000  1
  Si  Si71  1  0.50000000  0.50000000  0.00000000  1
  Te  Te72  1  0.47808673  0.70488244  0.76287481  1
  Te  Te73  1  0.52191327  0.29511756  0.76287481  1
  Te  Te74  1  0.02191327  0.20488244  0.73712519  1
  Te  Te75  1  0.97808673  0.79511756  0.73712519  1
  Te  Te76  1  0.52191327  0.29511756  0.23712519  1
  Te  Te77  1  0.47808673  0.70488244  0.23712519  1
  Te  Te78  1  0.97808673  0.79511756  0.26287481  1
  Te  Te79  1  0.02191327  0.20488244  0.26287481  1
  Te  Te80  1  0.00000000  0.50000000  0.26210548  1
  Te  Te81  1  0.50000000  0.00000000  0.23789452  1
  Te  Te82  1  0.00000000  0.50000000  0.73789452  1
  Te  Te83  1  0.50000000  0.00000000  0.76210548  1
