# generated using pymatgen
data_Li3YTiF
_symmetry_space_group_name_H-M   'P 1'
_cell_length_a   3.16020040
_cell_length_b   3.09471773
_cell_length_c   6.08342006
_cell_angle_alpha   112.89520560
_cell_angle_beta   104.95727558
_cell_angle_gamma   111.31532695
_symmetry_Int_Tables_number   1
_chemical_formula_structural   Li3YTiF
_chemical_formula_sum   'Li3 Y1 Ti1 F1'
_cell_volume   45.18891133
_cell_formula_units_Z   1
loop_
 _symmetry_equiv_pos_site_id
 _symmetry_equiv_pos_as_xyz
  1  'x, y, z'
loop_
 _atom_site_type_symbol
 _atom_site_label
 _atom_site_symmetry_multiplicity
 _atom_site_fract_x
 _atom_site_fract_y
 _atom_site_fract_z
 _atom_site_occupancy
  F  F0  1  0.00000000  0.00000000  0.00000000  1
  Li  Li1  1  0.50000000  0.50000000  0.50000000  1
  Li  Li2  1  0.25000000  0.25000000  0.25000000  1
  Li  Li3  1  0.75000000  0.25000000  0.00000000  1
  Ti  Ti4  1  0.25000000  0.75000000  0.50000000  1
  Y  Y5  1  0.82669179  0.19742290  0.27265145  1
