# generated using pymatgen
data_LiF
_symmetry_space_group_name_H-M   'P 1'
_cell_length_a   12.16872410
_cell_length_b   12.63566302
_cell_length_c   10.09946366
_cell_angle_alpha   90.00000000
_cell_angle_beta   90.00000000
_cell_angle_gamma   90.00000000
_symmetry_Int_Tables_number   1
_chemical_formula_structural   LiF
_chemical_formula_sum   'Li52 F52'
_cell_volume   1552.89249256
_cell_formula_units_Z   52
loop_
 _symmetry_equiv_pos_site_id
 _symmetry_equiv_pos_as_xyz
  1  'x, y, z'
loop_
 _atom_site_type_symbol
 _atom_site_label
 _atom_site_symmetry_multiplicity
 _atom_site_fract_x
 _atom_site_fract_y
 _atom_site_fract_z
 _atom_site_occupancy
  F  F0  1  0.77890510  0.39260253  0.24908695  1
  F  F1  1  0.72109490  0.60739747  0.74908695  1
  F  F2  1  0.22109490  0.89260253  0.75091305  1
  F  F3  1  0.27890510  0.10739747  0.25091305  1
  F  F4  1  0.22109490  0.60739747  0.75091305  1
  F  F5  1  0.27890510  0.39260253  0.25091305  1
  F  F6  1  0.77890510  0.10739747  0.24908695  1
  F  F7  1  0.72109490  0.89260253  0.74908695  1
  F  F8  1  0.18715594  0.25000000  0.75235025  1
  F  F9  1  0.31284406  0.75000000  0.25235025  1
  F  F10  1  0.81284406  0.75000000  0.24764975  1
  F  F11  1  0.68715594  0.25000000  0.74764975  1
  F  F12  1  0.85512594  0.58852020  0.65497904  1
  F  F13  1  0.64487406  0.41147980  0.15497904  1
  F  F14  1  0.14487406  0.08852020  0.34502096  1
  F  F15  1  0.35512594  0.91147980  0.84502096  1
  F  F16  1  0.14487406  0.41147980  0.34502096  1
  F  F17  1  0.35512594  0.58852020  0.84502096  1
  F  F18  1  0.85512594  0.91147980  0.65497904  1
  F  F19  1  0.64487406  0.08852020  0.15497904  1
  F  F20  1  0.91925357  0.39116795  0.50849142  1
  F  F21  1  0.58074643  0.60883205  0.00849142  1
  F  F22  1  0.08074643  0.89116795  0.49150858  1
  F  F23  1  0.41925357  0.10883205  0.99150858  1
  F  F24  1  0.08074643  0.60883205  0.49150858  1
  F  F25  1  0.41925357  0.39116795  0.99150858  1
  F  F26  1  0.91925357  0.10883205  0.50849142  1
  F  F27  1  0.58074643  0.89116795  0.00849142  1
  F  F28  1  0.25773888  0.05277318  0.02320199  1
  F  F29  1  0.24226112  0.94722682  0.52320199  1
  F  F30  1  0.74226112  0.55277318  0.97679801  1
  F  F31  1  0.75773888  0.44722682  0.47679801  1
  F  F32  1  0.74226112  0.94722682  0.97679801  1
  F  F33  1  0.75773888  0.05277318  0.47679801  1
  F  F34  1  0.25773888  0.44722682  0.02320199  1
  F  F35  1  0.24226112  0.55277318  0.52320199  1
  F  F36  1  0.15341954  0.29633632  0.46829017  1
  F  F37  1  0.34658046  0.70366368  0.96829017  1
  F  F38  1  0.84658046  0.79633632  0.53170983  1
  F  F39  1  0.65341954  0.20366368  0.03170983  1
  F  F40  1  0.84658046  0.70366368  0.53170983  1
  F  F41  1  0.65341954  0.29633632  0.03170983  1
  F  F42  1  0.15341954  0.20366368  0.46829017  1
  F  F43  1  0.34658046  0.79633632  0.96829017  1
  F  F44  1  0.09193495  0.77988842  0.99466971  1
  F  F45  1  0.40806505  0.22011158  0.49466971  1
  F  F46  1  0.90806505  0.27988842  0.00533029  1
  F  F47  1  0.59193495  0.72011158  0.50533029  1
  F  F48  1  0.90806505  0.22011158  0.00533029  1
  F  F49  1  0.59193495  0.77988842  0.50533029  1
  F  F50  1  0.09193495  0.72011158  0.99466971  1
  F  F51  1  0.40806505  0.27988842  0.49466971  1
  Li  Li52  1  0.09763416  0.88371123  0.12755500  1
  Li  Li53  1  0.40236584  -0.88371123  0.62755500  1
  Li  Li54  1  -0.09763416  1.38371123  -0.12755500  1
  Li  Li55  1  0.59763416  -0.38371123  0.37244500  1
  Li  Li56  1  -0.09763416  -0.88371123  -0.12755500  1
  Li  Li57  1  0.59763416  0.88371123  0.37244500  1
  Li  Li58  1  0.09763416  -0.38371123  0.12755500  1
  Li  Li59  1  0.40236584  1.38371123  0.62755500  1
  Li  Li60  1  0.57252645  0.25000000  0.52266956  1
  Li  Li61  1  0.92747355  0.75000000  0.02266956  1
  Li  Li62  1  0.42747355  0.75000000  0.47733044  1
  Li  Li63  1  0.07252645  0.25000000  0.97733044  1
  Li  Li64  1  0.94245812  0.10081087  0.72707380  1
  Li  Li65  1  0.55754188  0.89918913  0.22707380  1
  Li  Li66  1  0.05754188  0.60081087  0.27292620  1
  Li  Li67  1  0.44245812  0.39918913  0.77292620  1
  Li  Li68  1  0.05754188  0.89918913  0.27292620  1
  Li  Li69  1  0.44245812  0.10081087  0.77292620  1
  Li  Li70  1  0.94245812  0.39918913  0.72707380  1
  Li  Li71  1  0.55754188  0.60081087  0.22707380  1
  Li  Li72  1  0.95524665  0.12246398  0.99850502  1
  Li  Li73  1  0.54475335  0.87753602  0.49850502  1
  Li  Li74  1  0.04475335  0.62246398  0.00149498  1
  Li  Li75  1  0.45524665  0.37753602  0.50149498  1
  Li  Li76  1  0.04475335  0.87753602  0.00149498  1
  Li  Li77  1  0.45524665  0.12246398  0.50149498  1
  Li  Li78  1  0.95524665  0.37753602  0.99850502  1
  Li  Li79  1  0.54475335  0.62246398  0.49850502  1
  Li  Li80  1  0.00000000  0.00000000  0.00000000  1
  Li  Li81  1  0.50000000  0.00000000  0.50000000  1
  Li  Li82  1  0.00000000  0.50000000  -0.00000000  1
  Li  Li83  1  0.50000000  0.50000000  0.50000000  1
  Li  Li84  1  0.09452183  0.25000000  0.54161504  1
  Li  Li85  1  0.40547817  0.75000000  0.04161504  1
  Li  Li86  1  0.90547817  0.75000000  0.45838496  1
  Li  Li87  1  0.59452183  0.25000000  0.95838496  1
  Li  Li88  1  0.00000000  0.00000000  0.50000000  1
  Li  Li89  1  0.50000000  0.00000000  0.00000000  1
  Li  Li90  1  0.00000000  0.50000000  0.50000000  1
  Li  Li91  1  0.50000000  0.50000000  -0.00000000  1
  Li  Li92  1  0.06505008  0.12331651  0.11568710  1
  Li  Li93  1  0.43494992  0.87668349  0.61568710  1
  Li  Li94  1  0.93494992  0.62331651  0.88431290  1
  Li  Li95  1  0.56505008  0.37668349  0.38431290  1
  Li  Li96  1  0.93494992  0.87668349  0.88431290  1
  Li  Li97  1  0.56505008  0.12331651  0.38431290  1
  Li  Li98  1  0.06505008  0.37668349  0.11568710  1
  Li  Li99  1  0.43494992  0.62331651  0.61568710  1
  Li  Li100  1  0.55725662  0.25000000  0.70123282  1
  Li  Li101  1  0.94274338  0.75000000  0.20123282  1
  Li  Li102  1  0.44274338  0.75000000  0.29876718  1
  Li  Li103  1  0.05725662  0.25000000  0.79876718  1
