# generated using pymatgen
data_Li3Y2Mo2P4Se
_symmetry_space_group_name_H-M   'P 1'
_cell_length_a   5.08955220
_cell_length_b   5.45851501
_cell_length_c   6.82907112
_cell_angle_alpha   93.10624630
_cell_angle_beta   97.57084058
_cell_angle_gamma   103.44985465
_symmetry_Int_Tables_number   1
_chemical_formula_structural   Li3Y2Mo2P4Se
_chemical_formula_sum   'Li3 Y2 Mo2 P4 Se1'
_cell_volume   182.19985733
_cell_formula_units_Z   1
loop_
 _symmetry_equiv_pos_site_id
 _symmetry_equiv_pos_as_xyz
  1  'x, y, z'
loop_
 _atom_site_type_symbol
 _atom_site_label
 _atom_site_symmetry_multiplicity
 _atom_site_fract_x
 _atom_site_fract_y
 _atom_site_fract_z
 _atom_site_occupancy
  Se  Se0  1  0.00000000  0.00000000  0.00000000  1
  Y  Y1  1  0.50000000  0.50000000  0.50000000  1
  Y  Y2  1  0.25000000  0.25000000  0.25000000  1
  P  P3  1  0.75000000  0.25000000  0.00000000  1
  P  P4  1  0.25000000  0.75000000  0.50000000  1
  P  P5  1  0.47136172  0.78514637  0.52014224  1
  P  P6  1  0.30837490  0.04423178  0.03857357  1
  Mo  Mo7  1  0.73151573  0.43704933  0.03287192  1
  Mo  Mo8  1  0.94645292  0.32167223  0.12388625  1
  Li  Li9  1  0.96684824  0.44492862  0.48197529  1
  Li  Li10  1  0.00669754  0.17455555  0.26719730  1
  Li  Li11  1  0.96782273  0.25828775  0.06840293  1
