# generated using pymatgen
data_LiF
_symmetry_space_group_name_H-M   'P 1'
_cell_length_a   11.57158557
_cell_length_b   10.65696534
_cell_length_c   6.83491184
_cell_angle_alpha   90.00000000
_cell_angle_beta   90.00000000
_cell_angle_gamma   90.00000000
_symmetry_Int_Tables_number   1
_chemical_formula_structural   LiF
_chemical_formula_sum   'Li38 F38'
_cell_volume   842.86756453
_cell_formula_units_Z   38
loop_
 _symmetry_equiv_pos_site_id
 _symmetry_equiv_pos_as_xyz
  1  'x, y, z'
loop_
 _atom_site_type_symbol
 _atom_site_label
 _atom_site_symmetry_multiplicity
 _atom_site_fract_x
 _atom_site_fract_y
 _atom_site_fract_z
 _atom_site_occupancy
  F  F0  1  0.00000000  0.50000000  0.32395657  1
  F  F1  1  0.50000000  0.00000000  0.67604343  1
  F  F2  1  0.00000000  0.50000000  0.67604343  1
  F  F3  1  0.50000000  0.00000000  0.32395657  1
  F  F4  1  0.77603002  0.08115931  0.76243943  1
  F  F5  1  0.22396998  0.91884069  0.76243943  1
  F  F6  1  0.72396998  0.58115931  0.23756057  1
  F  F7  1  0.27603002  0.41884069  0.23756057  1
  F  F8  1  0.22396998  0.91884069  0.23756057  1
  F  F9  1  0.77603002  0.08115931  0.23756057  1
  F  F10  1  0.27603002  0.41884069  0.76243943  1
  F  F11  1  0.72396998  0.58115931  0.76243943  1
  F  F12  1  0.28170631  0.74075291  0.68652882  1
  F  F13  1  0.71829369  0.25924709  0.68652882  1
  F  F14  1  0.21829369  0.24075291  0.31347118  1
  F  F15  1  0.78170631  0.75924709  0.31347118  1
  F  F16  1  0.71829369  0.25924709  0.31347118  1
  F  F17  1  0.28170631  0.74075291  0.31347118  1
  F  F18  1  0.78170631  0.75924709  0.68652882  1
  F  F19  1  0.21829369  0.24075291  0.68652882  1
  F  F20  1  0.04779595  0.52496416  0.20261432  1
  F  F21  1  0.95220405  0.47503584  0.20261432  1
  F  F22  1  0.45220405  0.02496416  0.79738568  1
  F  F23  1  0.54779595  0.97503584  0.79738568  1
  F  F24  1  0.95220405  0.47503584  0.79738568  1
  F  F25  1  0.04779595  0.52496416  0.79738568  1
  F  F26  1  0.54779595  0.97503584  0.20261432  1
  F  F27  1  0.45220405  0.02496416  0.20261432  1
  F  F28  1  0.30238955  0.15860739  0.07756043  1
  F  F29  1  0.69761045  0.84139261  0.07756043  1
  F  F30  1  0.19761045  0.65860739  0.92243957  1
  F  F31  1  0.80238955  0.34139261  0.92243957  1
  F  F32  1  0.69761045  0.84139261  0.92243957  1
  F  F33  1  0.30238955  0.15860739  0.92243957  1
  F  F34  1  0.80238955  0.34139261  0.07756043  1
  F  F35  1  0.19761045  0.65860739  0.07756043  1
  F  F36  1  0.00000000  0.00000000  0.50000000  1
  F  F37  1  0.50000000  0.50000000  0.50000000  1
  Li  Li38  1  0.00000000  0.50000000  0.50000000  1
  Li  Li39  1  0.50000000  0.00000000  0.50000000  1
  Li  Li40  1  0.00000000  0.00000000  0.00000000  1
  Li  Li41  1  0.50000000  0.50000000  -0.00000000  1
  Li  Li42  1  0.75823018  0.13972764  0.36086063  1
  Li  Li43  1  -0.75823018  -0.13972764  0.36086063  1
  Li  Li44  1  -0.25823018  0.63972764  -0.36086063  1
  Li  Li45  1  1.25823018  0.36027236  -0.36086063  1
  Li  Li46  1  -0.75823018  -0.13972764  -0.36086063  1
  Li  Li47  1  0.75823018  0.13972764  -0.36086063  1
  Li  Li48  1  1.25823018  0.36027236  0.36086063  1
  Li  Li49  1  -0.25823018  0.63972764  0.36086063  1
  Li  Li50  1  0.94337983  0.61406355  0.68439804  1
  Li  Li51  1  0.05662017  0.38593645  0.68439804  1
  Li  Li52  1  0.55662017  0.11406355  0.31560196  1
  Li  Li53  1  0.44337983  0.88593645  0.31560196  1
  Li  Li54  1  0.05662017  0.38593645  0.31560196  1
  Li  Li55  1  0.94337983  0.61406355  0.31560196  1
  Li  Li56  1  0.44337983  0.88593645  0.68439804  1
  Li  Li57  1  0.55662017  0.11406355  0.68439804  1
  Li  Li58  1  0.92799871  0.68487953  0.15233454  1
  Li  Li59  1  0.07200129  0.31512047  0.15233454  1
  Li  Li60  1  0.57200129  0.18487953  0.84766546  1
  Li  Li61  1  0.42799871  0.81512047  0.84766546  1
  Li  Li62  1  0.07200129  0.31512047  0.84766546  1
  Li  Li63  1  0.92799871  0.68487953  0.84766546  1
  Li  Li64  1  0.42799871  0.81512047  0.15233454  1
  Li  Li65  1  0.57200129  0.18487953  0.15233454  1
  Li  Li66  1  0.36353067  0.20600805  0.40233708  1
  Li  Li67  1  0.63646933  0.79399195  0.40233708  1
  Li  Li68  1  0.13646933  0.70600805  0.59766292  1
  Li  Li69  1  0.86353067  0.29399195  0.59766292  1
  Li  Li70  1  0.63646933  0.79399195  0.59766292  1
  Li  Li71  1  0.36353067  0.20600805  0.59766292  1
  Li  Li72  1  0.86353067  0.29399195  0.40233708  1
  Li  Li73  1  0.13646933  0.70600805  0.40233708  1
  Li  Li74  1  0.00000000  0.50000000  -0.00000000  1
  Li  Li75  1  0.50000000  0.00000000  0.00000000  1
