# generated using pymatgen
data_LiF
_symmetry_space_group_name_H-M   'P 1'
_cell_length_a   16.22552154
_cell_length_b   6.94378715
_cell_length_c   14.29920916
_cell_angle_alpha   90.00000000
_cell_angle_beta   90.00000000
_cell_angle_gamma   90.00000000
_symmetry_Int_Tables_number   1
_chemical_formula_structural   LiF
_chemical_formula_sum   'Li56 F56'
_cell_volume   1611.04282053
_cell_formula_units_Z   56
loop_
 _symmetry_equiv_pos_site_id
 _symmetry_equiv_pos_as_xyz
  1  'x, y, z'
loop_
 _atom_site_type_symbol
 _atom_site_label
 _atom_site_symmetry_multiplicity
 _atom_site_fract_x
 _atom_site_fract_y
 _atom_site_fract_z
 _atom_site_occupancy
  F  F0  1  0.18259627  0.93624166  0.00000000  1
  F  F1  1  0.81740373  0.06375834  0.00000000  1
  F  F2  1  0.31740373  0.43624166  0.00000000  1
  F  F3  1  0.68259627  0.56375834  0.00000000  1
  F  F4  1  0.64257988  0.68827959  0.50000000  1
  F  F5  1  0.35742012  0.31172041  0.50000000  1
  F  F6  1  0.85742012  0.18827959  0.50000000  1
  F  F7  1  0.14257988  0.81172041  0.50000000  1
  F  F8  1  0.28334477  0.02776324  0.61249642  1
  F  F9  1  0.71665523  0.97223676  0.61249642  1
  F  F10  1  0.21665523  0.52776324  0.38750358  1
  F  F11  1  0.78334477  0.47223676  0.38750358  1
  F  F12  1  0.71665523  0.97223676  0.38750358  1
  F  F13  1  0.28334477  0.02776324  0.38750358  1
  F  F14  1  0.78334477  0.47223676  0.61249642  1
  F  F15  1  0.21665523  0.52776324  0.61249642  1
  F  F16  1  0.00000000  0.00000000  0.39983573  1
  F  F17  1  0.50000000  0.50000000  0.60016427  1
  F  F18  1  0.00000000  0.00000000  0.60016427  1
  F  F19  1  0.50000000  0.50000000  0.39983573  1
  F  F20  1  0.27669580  0.64327760  0.72841196  1
  F  F21  1  0.72330420  0.35672240  0.72841196  1
  F  F22  1  0.22330420  0.14327760  0.27158804  1
  F  F23  1  0.77669580  0.85672240  0.27158804  1
  F  F24  1  0.72330420  0.35672240  0.27158804  1
  F  F25  1  0.27669580  0.64327760  0.27158804  1
  F  F26  1  0.77669580  0.85672240  0.72841196  1
  F  F27  1  0.22330420  0.14327760  0.72841196  1
  F  F28  1  0.43709568  0.56713574  0.54938236  1
  F  F29  1  0.56290432  0.43286426  0.54938236  1
  F  F30  1  0.06290432  0.06713574  0.45061764  1
  F  F31  1  0.93709568  0.93286426  0.45061764  1
  F  F32  1  0.56290432  0.43286426  0.45061764  1
  F  F33  1  0.43709568  0.56713574  0.45061764  1
  F  F34  1  0.93709568  0.93286426  0.54938236  1
  F  F35  1  0.06290432  0.06713574  0.54938236  1
  F  F36  1  0.00000000  0.00000000  0.91768551  1
  F  F37  1  0.50000000  0.50000000  0.08231449  1
  F  F38  1  0.00000000  0.00000000  0.08231449  1
  F  F39  1  0.50000000  0.50000000  0.91768551  1
  F  F40  1  0.23671564  0.59484698  0.84783805  1
  F  F41  1  0.76328436  0.40515302  0.84783805  1
  F  F42  1  0.26328436  0.09484698  0.15216195  1
  F  F43  1  0.73671564  0.90515302  0.15216195  1
  F  F44  1  0.76328436  0.40515302  0.15216195  1
  F  F45  1  0.23671564  0.59484698  0.15216195  1
  F  F46  1  0.73671564  0.90515302  0.84783805  1
  F  F47  1  0.26328436  0.09484698  0.84783805  1
  F  F48  1  0.50471086  0.19931502  0.64058644  1
  F  F49  1  0.49528914  0.80068498  0.64058644  1
  F  F50  1  0.99528914  0.69931502  0.35941356  1
  F  F51  1  0.00471086  0.30068498  0.35941356  1
  F  F52  1  0.49528914  0.80068498  0.35941356  1
  F  F53  1  0.50471086  0.19931502  0.35941356  1
  F  F54  1  0.00471086  0.30068498  0.64058644  1
  F  F55  1  0.99528914  0.69931502  0.64058644  1
  Li  Li56  1  0.98128636  0.74540799  0.82850894  1
  Li  Li57  1  -0.98128636  -0.74540799  0.82850894  1
  Li  Li58  1  -0.48128636  1.24540799  -0.82850894  1
  Li  Li59  1  1.48128636  -0.24540799  -0.82850894  1
  Li  Li60  1  -0.98128636  -0.74540799  -0.82850894  1
  Li  Li61  1  0.98128636  0.74540799  -0.82850894  1
  Li  Li62  1  1.48128636  -0.24540799  0.82850894  1
  Li  Li63  1  -0.48128636  1.24540799  0.82850894  1
  Li  Li64  1  0.00000000  0.00000000  0.00000000  1
  Li  Li65  1  0.50000000  0.50000000  0.00000000  1
  Li  Li66  1  0.90634437  0.59928858  0.34630033  1
  Li  Li67  1  0.09365563  0.40071142  0.34630033  1
  Li  Li68  1  0.59365563  0.09928858  0.65369967  1
  Li  Li69  1  0.40634437  0.90071142  0.65369967  1
  Li  Li70  1  0.09365563  0.40071142  0.65369967  1
  Li  Li71  1  0.90634437  0.59928858  0.65369967  1
  Li  Li72  1  0.40634437  0.90071142  0.34630033  1
  Li  Li73  1  0.59365563  0.09928858  0.34630033  1
  Li  Li74  1  0.00000000  0.50000000  0.00000000  1
  Li  Li75  1  0.50000000  0.00000000  0.00000000  1
  Li  Li76  1  0.26374296  0.39475580  0.50000000  1
  Li  Li77  1  0.73625704  0.60524420  0.50000000  1
  Li  Li78  1  0.23625704  0.89475580  0.50000000  1
  Li  Li79  1  0.76374296  0.10524420  0.50000000  1
  Li  Li80  1  0.00000000  0.50000000  0.50000000  1
  Li  Li81  1  0.50000000  0.00000000  0.50000000  1
  Li  Li82  1  0.20797198  0.08391205  0.41165747  1
  Li  Li83  1  0.79202802  0.91608795  0.41165747  1
  Li  Li84  1  0.29202802  0.58391205  0.58834253  1
  Li  Li85  1  0.70797198  0.41608795  0.58834253  1
  Li  Li86  1  0.79202802  0.91608795  0.58834253  1
  Li  Li87  1  0.20797198  0.08391205  0.58834253  1
  Li  Li88  1  0.70797198  0.41608795  0.41165747  1
  Li  Li89  1  0.29202802  0.58391205  0.41165747  1
  Li  Li90  1  0.00000000  0.00000000  0.50000000  1
  Li  Li91  1  0.50000000  0.50000000  0.50000000  1
  Li  Li92  1  0.65032982  0.76396909  0.86227524  1
  Li  Li93  1  0.34967018  0.23603091  0.86227524  1
  Li  Li94  1  0.84967018  0.26396909  0.13772476  1
  Li  Li95  1  0.15032982  0.73603091  0.13772476  1
  Li  Li96  1  0.34967018  0.23603091  0.13772476  1
  Li  Li97  1  0.65032982  0.76396909  0.13772476  1
  Li  Li98  1  0.15032982  0.73603091  0.86227524  1
  Li  Li99  1  0.84967018  0.26396909  0.86227524  1
  Li  Li100  1  0.56922174  0.67673854  0.50000000  1
  Li  Li101  1  0.43077826  0.32326146  0.50000000  1
  Li  Li102  1  0.93077826  0.17673854  0.50000000  1
  Li  Li103  1  0.06922174  0.82326146  0.50000000  1
  Li  Li104  1  0.29020666  0.03758149  0.92322504  1
  Li  Li105  1  0.70979334  0.96241851  0.92322504  1
  Li  Li106  1  0.20979334  0.53758149  0.07677496  1
  Li  Li107  1  0.79020666  0.46241851  0.07677496  1
  Li  Li108  1  0.70979334  0.96241851  0.07677496  1
  Li  Li109  1  0.29020666  0.03758149  0.07677496  1
  Li  Li110  1  0.79020666  0.46241851  0.92322504  1
  Li  Li111  1  0.20979334  0.53758149  0.92322504  1
