# generated using pymatgen
data_LiF
_symmetry_space_group_name_H-M   'P 1'
_cell_length_a   6.58259230
_cell_length_b   6.58259230
_cell_length_c   6.25582717
_cell_angle_alpha   90.00000000
_cell_angle_beta   90.00000000
_cell_angle_gamma   120.00000000
_symmetry_Int_Tables_number   1
_chemical_formula_structural   LiF
_chemical_formula_sum   'Li17 F17'
_cell_volume   234.75199284
_cell_formula_units_Z   17
loop_
 _symmetry_equiv_pos_site_id
 _symmetry_equiv_pos_as_xyz
  1  'x, y, z'
loop_
 _atom_site_type_symbol
 _atom_site_label
 _atom_site_symmetry_multiplicity
 _atom_site_fract_x
 _atom_site_fract_y
 _atom_site_fract_z
 _atom_site_occupancy
  F  F0  1  0.33333333  0.66666667  0.50000000  1
  F  F1  1  0.55429379  0.01460991  0.72268262  1
  F  F2  1  0.98539009  0.53968388  0.72268262  1
  F  F3  1  0.46031612  0.44570621  0.72268262  1
  F  F4  1  0.98539009  0.44570621  0.27731738  1
  F  F5  1  0.46031612  0.01460991  0.27731738  1
  F  F6  1  0.55429379  0.53968388  0.27731738  1
  F  F7  1  0.68979951  0.99165382  0.52008247  1
  F  F8  1  0.00834618  0.69814569  0.52008247  1
  F  F9  1  0.30185431  0.31020049  0.52008247  1
  F  F10  1  0.00834618  0.31020049  0.47991753  1
  F  F11  1  0.30185431  0.99165382  0.47991753  1
  F  F12  1  0.68979951  0.69814569  0.47991753  1
  F  F13  1  0.03734795  0.96265205  0.50000000  1
  F  F14  1  0.03734795  0.07469590  0.50000000  1
  F  F15  1  0.92530410  0.96265205  0.50000000  1
  F  F16  1  0.33333333  0.66666667  0.00000000  1
  Li  Li17  1  0.88852396  0.11147604  0.50000000  1
  Li  Li18  1  0.88852396  0.77704791  0.50000000  1
  Li  Li19  1  0.22295209  0.11147604  0.50000000  1
  Li  Li20  1  0.00000000  0.00000000  0.00000000  1
  Li  Li21  1  0.82395028  0.17604972  0.00000000  1
  Li  Li22  1  0.82395028  0.64790055  0.00000000  1
  Li  Li23  1  0.35209945  0.17604972  -0.00000000  1
  Li  Li24  1  0.00000000  0.00000000  0.63921662  1
  Li  Li25  1  0.00000000  0.00000000  0.36078338  1
  Li  Li26  1  0.05047921  0.25832968  0.10580015  1
  Li  Li27  1  -0.25832968  -0.20785047  0.10580015  1
  Li  Li28  1  0.20785047  -0.05047921  0.10580015  1
  Li  Li29  1  -0.25832968  -0.05047921  -0.10580015  1
  Li  Li30  1  0.20785047  0.25832968  -0.10580015  1
  Li  Li31  1  0.05047921  -0.20785047  -0.10580015  1
  Li  Li32  1  0.66666667  0.33333333  0.00000000  1
  Li  Li33  1  0.66666667  0.33333333  0.50000000  1
