# generated using pymatgen
data_LiF
_symmetry_space_group_name_H-M   'P 1'
_cell_length_a   8.97783014
_cell_length_b   8.97783014
_cell_length_c   3.88297015
_cell_angle_alpha   90.00000000
_cell_angle_beta   90.00000000
_cell_angle_gamma   120.00000000
_symmetry_Int_Tables_number   1
_chemical_formula_structural   LiF
_chemical_formula_sum   'Li17 F17'
_cell_volume   271.04253643
_cell_formula_units_Z   17
loop_
 _symmetry_equiv_pos_site_id
 _symmetry_equiv_pos_as_xyz
  1  'x, y, z'
loop_
 _atom_site_type_symbol
 _atom_site_label
 _atom_site_symmetry_multiplicity
 _atom_site_fract_x
 _atom_site_fract_y
 _atom_site_fract_z
 _atom_site_occupancy
  F  F0  1  0.05793680  0.94206320  0.50000000  1
  F  F1  1  0.05793680  0.11587360  0.50000000  1
  F  F2  1  0.88412640  0.94206320  0.50000000  1
  F  F3  1  0.70557215  0.20486765  0.33085888  1
  F  F4  1  0.79513235  0.50070450  0.33085888  1
  F  F5  1  0.49929550  0.29442785  0.33085888  1
  F  F6  1  0.79513235  0.29442785  0.66914112  1
  F  F7  1  0.49929550  0.20486765  0.66914112  1
  F  F8  1  0.70557215  0.50070450  0.66914112  1
  F  F9  1  0.45334646  0.18163250  0.23659023  1
  F  F10  1  0.81836750  0.27171395  0.23659023  1
  F  F11  1  0.72828605  0.54665354  0.23659023  1
  F  F12  1  0.81836750  0.54665354  0.76340977  1
  F  F13  1  0.72828605  0.18163250  0.76340977  1
  F  F14  1  0.45334646  0.27171395  0.76340977  1
  F  F15  1  0.00000000  0.00000000  0.50000000  1
  F  F16  1  0.66666667  0.33333333  0.00000000  1
  Li  Li17  1  0.33949450  0.85366331  0.10064469  1
  Li  Li18  1  -0.85366331  -0.51416881  0.10064469  1
  Li  Li19  1  0.51416881  -0.33949450  0.10064469  1
  Li  Li20  1  -0.85366331  -0.33949450  -0.10064469  1
  Li  Li21  1  0.51416881  0.85366331  -0.10064469  1
  Li  Li22  1  0.33949450  -0.51416881  -0.10064469  1
  Li  Li23  1  0.17412154  0.93641345  0.30892753  1
  Li  Li24  1  0.06358655  0.23770809  0.30892753  1
  Li  Li25  1  0.76229191  0.82587846  0.30892753  1
  Li  Li26  1  0.06358655  0.82587846  0.69107247  1
  Li  Li27  1  0.76229191  0.93641345  0.69107247  1
  Li  Li28  1  0.17412154  0.23770809  0.69107247  1
  Li  Li29  1  0.74410212  0.25589788  0.00000000  1
  Li  Li30  1  0.74410212  0.48820423  0.00000000  1
  Li  Li31  1  0.51179577  0.25589788  0.00000000  1
  Li  Li32  1  0.33333333  0.66666667  0.50000000  1
  Li  Li33  1  0.33333333  0.66666667  0.00000000  1
