# generated using pymatgen
data_LiF
_symmetry_space_group_name_H-M   'P 1'
_cell_length_a   9.61855023
_cell_length_b   9.61855023
_cell_length_c   5.35132485
_cell_angle_alpha   90.00000000
_cell_angle_beta   90.00000000
_cell_angle_gamma   90.00000000
_symmetry_Int_Tables_number   1
_chemical_formula_structural   LiF
_chemical_formula_sum   'Li24 F24'
_cell_volume   495.08589144
_cell_formula_units_Z   24
loop_
 _symmetry_equiv_pos_site_id
 _symmetry_equiv_pos_as_xyz
  1  'x, y, z'
loop_
 _atom_site_type_symbol
 _atom_site_label
 _atom_site_symmetry_multiplicity
 _atom_site_fract_x
 _atom_site_fract_y
 _atom_site_fract_z
 _atom_site_occupancy
  F  F0  1  0.92711691  -0.00000000  -0.00000000  1
  F  F1  1  -0.42711691  -0.00000000  0.50000000  1
  F  F2  1  0.25000000  1.67711691  0.25000000  1
  F  F3  1  0.25000000  -0.67711691  0.75000000  1
  F  F4  1  -0.92711691  0.00000000  0.00000000  1
  F  F5  1  1.42711691  0.00000000  0.50000000  1
  F  F6  1  0.75000000  -0.67711691  0.75000000  1
  F  F7  1  0.75000000  1.67711691  0.25000000  1
  F  F8  1  1.42711691  0.50000000  0.50000000  1
  F  F9  1  0.07288309  0.50000000  1.00000000  1
  F  F10  1  0.75000000  2.17711691  0.75000000  1
  F  F11  1  0.75000000  -0.17711691  1.25000000  1
  F  F12  1  -0.42711691  0.50000000  0.50000000  1
  F  F13  1  1.92711691  0.50000000  1.00000000  1
  F  F14  1  1.25000000  -0.17711691  1.25000000  1
  F  F15  1  1.25000000  2.17711691  0.75000000  1
  F  F16  1  0.00000000  0.00000000  0.50000000  1
  F  F17  1  0.50000000  0.00000000  0.00000000  1
  F  F18  1  0.25000000  0.75000000  0.75000000  1
  F  F19  1  0.25000000  0.25000000  0.25000000  1
  F  F20  1  0.50000000  0.50000000  0.00000000  1
  F  F21  1  0.00000000  0.50000000  0.50000000  1
  F  F22  1  0.75000000  0.25000000  0.25000000  1
  F  F23  1  0.75000000  0.75000000  0.75000000  1
  Li  Li24  1  0.00000000  0.25000000  0.03632521  1
  Li  Li25  1  0.00000000  0.75000000  0.28632521  1
  Li  Li26  1  0.50000000  0.25000000  0.46367479  1
  Li  Li27  1  0.50000000  0.75000000  0.21367479  1
  Li  Li28  1  0.50000000  0.75000000  0.53632521  1
  Li  Li29  1  0.50000000  0.25000000  0.78632521  1
  Li  Li30  1  0.00000000  0.75000000  0.96367479  1
  Li  Li31  1  0.00000000  0.25000000  0.71367479  1
  Li  Li32  1  0.20924139  0.45924139  0.87500000  1
  Li  Li33  1  0.29075861  0.54075861  0.37500000  1
  Li  Li34  1  0.79075861  0.95924139  0.12500000  1
  Li  Li35  1  0.70924139  0.04075861  0.62500000  1
  Li  Li36  1  0.79075861  0.54075861  0.12500000  1
  Li  Li37  1  0.70924139  0.45924139  0.62500000  1
  Li  Li38  1  0.20924139  0.04075861  0.87500000  1
  Li  Li39  1  0.29075861  0.95924139  0.37500000  1
  Li  Li40  1  0.70924139  0.95924139  0.37500000  1
  Li  Li41  1  0.79075861  0.04075861  0.87500000  1
  Li  Li42  1  0.29075861  0.45924139  0.62500000  1
  Li  Li43  1  0.20924139  0.54075861  0.12500000  1
  Li  Li44  1  0.29075861  0.04075861  0.62500000  1
  Li  Li45  1  0.20924139  0.95924139  0.12500000  1
  Li  Li46  1  0.70924139  0.54075861  0.37500000  1
  Li  Li47  1  0.79075861  0.45924139  0.87500000  1
