# generated using pymatgen
data_LiF
_symmetry_space_group_name_H-M   'P 1'
_cell_length_a   8.08076484
_cell_length_b   6.91771057
_cell_length_c   20.18774435
_cell_angle_alpha   90.00000000
_cell_angle_beta   90.00000000
_cell_angle_gamma   90.00000000
_symmetry_Int_Tables_number   1
_chemical_formula_structural   LiF
_chemical_formula_sum   'Li28 F28'
_cell_volume   1128.50283057
_cell_formula_units_Z   28
loop_
 _symmetry_equiv_pos_site_id
 _symmetry_equiv_pos_as_xyz
  1  'x, y, z'
loop_
 _atom_site_type_symbol
 _atom_site_label
 _atom_site_symmetry_multiplicity
 _atom_site_fract_x
 _atom_site_fract_y
 _atom_site_fract_z
 _atom_site_occupancy
  F  F0  1  0.58422577  0.25000000  0.70333880  1
  F  F1  1  0.91577423  0.75000000  0.20333880  1
  F  F2  1  0.41577423  0.75000000  0.29666120  1
  F  F3  1  0.08422577  0.25000000  0.79666120  1
  F  F4  1  0.41934964  0.25000000  0.59167193  1
  F  F5  1  0.08065036  0.75000000  0.09167193  1
  F  F6  1  0.58065036  0.75000000  0.40832807  1
  F  F7  1  0.91934964  0.25000000  0.90832807  1
  F  F8  1  0.54072949  0.66035798  0.69825258  1
  F  F9  1  0.95927051  0.33964202  0.19825258  1
  F  F10  1  0.45927051  0.16035798  0.30174742  1
  F  F11  1  0.04072949  0.83964202  0.80174742  1
  F  F12  1  0.45927051  0.33964202  0.30174742  1
  F  F13  1  0.04072949  0.66035798  0.80174742  1
  F  F14  1  0.54072949  0.83964202  0.69825258  1
  F  F15  1  0.95927051  0.16035798  0.19825258  1
  F  F16  1  0.66618911  0.90269150  0.80888640  1
  F  F17  1  0.83381089  0.09730850  0.30888640  1
  F  F18  1  0.33381089  0.40269150  0.19111360  1
  F  F19  1  0.16618911  0.59730850  0.69111360  1
  F  F20  1  0.33381089  0.09730850  0.19111360  1
  F  F21  1  0.16618911  0.90269150  0.69111360  1
  F  F22  1  0.66618911  0.59730850  0.80888640  1
  F  F23  1  0.83381089  0.40269150  0.30888640  1
  F  F24  1  0.16327149  0.25000000  0.89679592  1
  F  F25  1  0.33672851  0.75000000  0.39679592  1
  F  F26  1  0.83672851  0.75000000  0.10320408  1
  F  F27  1  0.66327149  0.25000000  0.60320408  1
  Li  Li28  1  0.79631225  0.57234196  0.72194713  1
  Li  Li29  1  -0.29631225  -0.57234196  1.22194713  1
  Li  Li30  1  -0.79631225  1.07234196  -0.72194713  1
  Li  Li31  1  1.29631225  -0.07234196  -0.22194713  1
  Li  Li32  1  -0.79631225  -0.57234196  -0.72194713  1
  Li  Li33  1  1.29631225  0.57234196  -0.22194713  1
  Li  Li34  1  0.79631225  -0.07234196  0.72194713  1
  Li  Li35  1  -0.29631225  1.07234196  1.22194713  1
  Li  Li36  1  0.00000000  0.00000000  0.00000000  1
  Li  Li37  1  0.50000000  0.00000000  0.50000000  1
  Li  Li38  1  0.00000000  0.50000000  -0.00000000  1
  Li  Li39  1  0.50000000  0.50000000  0.50000000  1
  Li  Li40  1  0.36575419  0.25000000  0.93461668  1
  Li  Li41  1  0.13424581  0.75000000  0.43461668  1
  Li  Li42  1  0.63424581  0.75000000  0.06538332  1
  Li  Li43  1  0.86575419  0.25000000  0.56538332  1
  Li  Li44  1  0.86749946  0.03800300  0.16107093  1
  Li  Li45  1  0.63250054  0.96199700  0.66107093  1
  Li  Li46  1  0.13250054  0.53800300  0.83892907  1
  Li  Li47  1  0.36749946  0.46199700  0.33892907  1
  Li  Li48  1  0.13250054  0.96199700  0.83892907  1
  Li  Li49  1  0.36749946  0.03800300  0.33892907  1
  Li  Li50  1  0.86749946  0.46199700  0.16107093  1
  Li  Li51  1  0.63250054  0.53800300  0.66107093  1
  Li  Li52  1  0.00000000  0.00000000  0.50000000  1
  Li  Li53  1  0.50000000  0.00000000  0.00000000  1
  Li  Li54  1  0.00000000  0.50000000  0.50000000  1
  Li  Li55  1  0.50000000  0.50000000  -0.00000000  1
