# generated using pymatgen
data_LiF
_symmetry_space_group_name_H-M   'P 1'
_cell_length_a   7.43398816
_cell_length_b   7.50273950
_cell_length_c   6.63352847
_cell_angle_alpha   90.00000000
_cell_angle_beta   90.00000000
_cell_angle_gamma   90.00000000
_symmetry_Int_Tables_number   1
_chemical_formula_structural   LiF
_chemical_formula_sum   'Li16 F16'
_cell_volume   369.98688510
_cell_formula_units_Z   16
loop_
 _symmetry_equiv_pos_site_id
 _symmetry_equiv_pos_as_xyz
  1  'x, y, z'
loop_
 _atom_site_type_symbol
 _atom_site_label
 _atom_site_symmetry_multiplicity
 _atom_site_fract_x
 _atom_site_fract_y
 _atom_site_fract_z
 _atom_site_occupancy
  F  F0  1  0.82223058  0.34649151  0.28556498  1
  F  F1  1  0.67776942  0.65350849  0.78556498  1
  F  F2  1  0.17776942  0.84649151  0.71443502  1
  F  F3  1  0.32223058  0.15350849  0.21443502  1
  F  F4  1  0.17776942  0.65350849  0.71443502  1
  F  F5  1  0.32223058  0.34649151  0.21443502  1
  F  F6  1  0.82223058  0.15350849  0.28556498  1
  F  F7  1  0.67776942  0.84649151  0.78556498  1
  F  F8  1  0.43636204  0.55750003  0.17486403  1
  F  F9  1  0.06363796  0.44249997  0.67486403  1
  F  F10  1  0.56363796  0.05750003  0.82513597  1
  F  F11  1  0.93636204  0.94249997  0.32513597  1
  F  F12  1  0.56363796  0.44249997  0.82513597  1
  F  F13  1  0.93636204  0.55750003  0.32513597  1
  F  F14  1  0.43636204  0.94249997  0.17486403  1
  F  F15  1  0.06363796  0.05750003  0.67486403  1
  Li  Li16  1  0.55344098  0.62242796  0.34022205  1
  Li  Li17  1  -0.05344098  -0.62242796  0.84022205  1
  Li  Li18  1  -0.55344098  1.12242796  -0.34022205  1
  Li  Li19  1  1.05344098  -0.12242796  0.15977795  1
  Li  Li20  1  -0.55344098  -0.62242796  -0.34022205  1
  Li  Li21  1  1.05344098  0.62242796  0.15977795  1
  Li  Li22  1  0.55344098  -0.12242796  0.34022205  1
  Li  Li23  1  -0.05344098  1.12242796  0.84022205  1
  Li  Li24  1  0.56982444  0.03046469  0.10139385  1
  Li  Li25  1  0.93017556  0.96953531  0.60139385  1
  Li  Li26  1  0.43017556  0.53046469  0.89860615  1
  Li  Li27  1  0.06982444  0.46953531  0.39860615  1
  Li  Li28  1  0.43017556  0.96953531  0.89860615  1
  Li  Li29  1  0.06982444  0.03046469  0.39860615  1
  Li  Li30  1  0.56982444  0.46953531  0.10139385  1
  Li  Li31  1  0.93017556  0.53046469  0.60139385  1
