# generated using pymatgen
data_Li2Y2P4Se
_symmetry_space_group_name_H-M   'P 1'
_cell_length_a   4.77447749
_cell_length_b   4.86477195
_cell_length_c   7.19165167
_cell_angle_alpha   95.21929669
_cell_angle_beta   101.36654311
_cell_angle_gamma   110.96384041
_symmetry_Int_Tables_number   1
_chemical_formula_structural   Li2Y2P4Se
_chemical_formula_sum   'Li2 Y2 P4 Se1'
_cell_volume   150.52471805
_cell_formula_units_Z   1
loop_
 _symmetry_equiv_pos_site_id
 _symmetry_equiv_pos_as_xyz
  1  'x, y, z'
loop_
 _atom_site_type_symbol
 _atom_site_label
 _atom_site_symmetry_multiplicity
 _atom_site_fract_x
 _atom_site_fract_y
 _atom_site_fract_z
 _atom_site_occupancy
  Se  Se0  1  0.00000000  0.00000000  0.00000000  1
  Y  Y1  1  0.50000000  0.50000000  0.50000000  1
  Y  Y2  1  0.25000000  0.25000000  0.25000000  1
  P  P3  1  0.75000000  0.25000000  0.00000000  1
  P  P4  1  0.25000000  0.75000000  0.50000000  1
  P  P5  1  0.01715148  0.73891496  0.57387899  1
  P  P6  1  0.21985767  0.19161274  0.59837775  1
  Li  Li7  1  0.46751195  0.16342489  0.51871840  1
  Li  Li8  1  0.58470949  0.73476178  0.69348710  1
