# generated using pymatgen
data_LiF
_symmetry_space_group_name_H-M   'P 1'
_cell_length_a   13.86505298
_cell_length_b   13.86505298
_cell_length_c   6.52043507
_cell_angle_alpha   90.00000000
_cell_angle_beta   90.00000000
_cell_angle_gamma   90.00000000
_symmetry_Int_Tables_number   1
_chemical_formula_structural   LiF
_chemical_formula_sum   'Li34 F34'
_cell_volume   1253.48644424
_cell_formula_units_Z   34
loop_
 _symmetry_equiv_pos_site_id
 _symmetry_equiv_pos_as_xyz
  1  'x, y, z'
loop_
 _atom_site_type_symbol
 _atom_site_label
 _atom_site_symmetry_multiplicity
 _atom_site_fract_x
 _atom_site_fract_y
 _atom_site_fract_z
 _atom_site_occupancy
  F  F0  1  0.41532849  -0.00000000  0.75077627  1
  F  F1  1  0.58467151  0.00000000  0.75077627  1
  F  F2  1  0.00000000  0.41532849  0.75077627  1
  F  F3  1  0.00000000  0.58467151  0.75077627  1
  F  F4  1  0.58467151  0.00000000  0.24922373  1
  F  F5  1  0.41532849  -0.00000000  0.24922373  1
  F  F6  1  0.00000000  0.41532849  0.24922373  1
  F  F7  1  0.00000000  0.58467151  0.24922373  1
  F  F8  1  0.45955165  0.61103381  0.71206154  1
  F  F9  1  0.54044835  0.38896619  0.71206154  1
  F  F10  1  0.38896619  0.45955165  0.71206154  1
  F  F11  1  0.61103381  0.54044835  0.71206154  1
  F  F12  1  0.54044835  0.61103381  0.28793846  1
  F  F13  1  0.45955165  0.38896619  0.28793846  1
  F  F14  1  0.61103381  0.45955165  0.28793846  1
  F  F15  1  0.38896619  0.54044835  0.28793846  1
  F  F16  1  0.54044835  0.38896619  0.28793846  1
  F  F17  1  0.45955165  0.61103381  0.28793846  1
  F  F18  1  0.61103381  0.54044835  0.28793846  1
  F  F19  1  0.38896619  0.45955165  0.28793846  1
  F  F20  1  0.45955165  0.38896619  0.71206154  1
  F  F21  1  0.54044835  0.61103381  0.71206154  1
  F  F22  1  0.38896619  0.54044835  0.71206154  1
  F  F23  1  0.61103381  0.45955165  0.71206154  1
  F  F24  1  0.62603077  -0.00000000  -0.00000000  1
  F  F25  1  0.37396923  0.00000000  0.00000000  1
  F  F26  1  0.00000000  0.62603077  -0.00000000  1
  F  F27  1  0.00000000  0.37396923  0.00000000  1
  F  F28  1  0.15880689  0.50000000  0.50000000  1
  F  F29  1  0.84119311  0.50000000  0.50000000  1
  F  F30  1  0.50000000  0.15880689  0.50000000  1
  F  F31  1  0.50000000  0.84119311  0.50000000  1
  F  F32  1  0.50000000  0.50000000  0.27821377  1
  F  F33  1  0.50000000  0.50000000  0.72178623  1
  Li  Li34  1  0.00000000  0.00000000  0.23240363  1
  Li  Li35  1  0.00000000  0.00000000  0.76759637  1
  Li  Li36  1  0.50000000  0.50000000  0.50000000  1
  Li  Li37  1  0.30331999  -0.00000000  0.50000000  1
  Li  Li38  1  0.69668001  -0.00000000  0.50000000  1
  Li  Li39  1  0.00000000  0.30331999  0.50000000  1
  Li  Li40  1  0.00000000  0.69668001  0.50000000  1
  Li  Li41  1  0.29466291  0.50000000  0.50000000  1
  Li  Li42  1  0.70533709  0.50000000  0.50000000  1
  Li  Li43  1  0.50000000  0.29466291  0.50000000  1
  Li  Li44  1  0.50000000  0.70533709  0.50000000  1
  Li  Li45  1  0.83335987  0.50000000  -0.00000000  1
  Li  Li46  1  0.16664013  0.50000000  -0.00000000  1
  Li  Li47  1  0.50000000  0.83335987  -0.00000000  1
  Li  Li48  1  0.50000000  0.16664013  -0.00000000  1
  Li  Li49  1  0.22402530  0.61772615  0.61298500  1
  Li  Li50  1  -0.22402530  -0.61772615  0.61298500  1
  Li  Li51  1  -0.61772615  0.22402530  0.61298500  1
  Li  Li52  1  0.61772615  -0.22402530  0.61298500  1
  Li  Li53  1  -0.22402530  0.61772615  -0.61298500  1
  Li  Li54  1  0.22402530  -0.61772615  -0.61298500  1
  Li  Li55  1  0.61772615  0.22402530  -0.61298500  1
  Li  Li56  1  -0.61772615  -0.22402530  -0.61298500  1
  Li  Li57  1  -0.22402530  -0.61772615  -0.61298500  1
  Li  Li58  1  0.22402530  0.61772615  -0.61298500  1
  Li  Li59  1  0.61772615  -0.22402530  -0.61298500  1
  Li  Li60  1  -0.61772615  0.22402530  -0.61298500  1
  Li  Li61  1  0.22402530  -0.61772615  0.61298500  1
  Li  Li62  1  -0.22402530  0.61772615  0.61298500  1
  Li  Li63  1  -0.61772615  -0.22402530  0.61298500  1
  Li  Li64  1  0.61772615  0.22402530  0.61298500  1
  Li  Li65  1  0.00000000  0.50000000  0.00000000  1
  Li  Li66  1  0.50000000  -0.00000000  0.00000000  1
  Li  Li67  1  0.00000000  0.00000000  0.50000000  1
