# generated using pymatgen
data_Li2YAsP4
_symmetry_space_group_name_H-M   'P 1'
_cell_length_a   4.53141070
_cell_length_b   4.66994630
_cell_length_c   7.05548883
_cell_angle_alpha   96.48466317
_cell_angle_beta   103.55642031
_cell_angle_gamma   113.29657429
_symmetry_Int_Tables_number   1
_chemical_formula_structural   Li2YAsP4
_chemical_formula_sum   'Li2 Y1 As1 P4'
_cell_volume   129.72718845
_cell_formula_units_Z   1
loop_
 _symmetry_equiv_pos_site_id
 _symmetry_equiv_pos_as_xyz
  1  'x, y, z'
loop_
 _atom_site_type_symbol
 _atom_site_label
 _atom_site_symmetry_multiplicity
 _atom_site_fract_x
 _atom_site_fract_y
 _atom_site_fract_z
 _atom_site_occupancy
  P  P0  1  0.00000000  0.00000000  0.00000000  1
  P  P1  1  0.33300000  0.66700000  0.25000000  1
  P  P2  1  0.66700000  0.33300000  0.50000000  1
  P  P3  1  0.00000000  0.00000000  0.75000000  1
  As  As4  1  0.76501827  0.70254233  0.16883036  1
  Li  Li5  1  0.11882316  0.94752422  0.37546229  1
  Li  Li6  1  0.10152942  0.09313437  0.59083398  1
  Y  Y7  1  0.03319989  0.10193977  0.88889925  1
