# generated using pymatgen
data_LiAlOF
_symmetry_space_group_name_H-M   'P 1'
_cell_length_a   3.39150871
_cell_length_b   3.31235156
_cell_length_c   5.72749565
_cell_angle_alpha   100.78941886
_cell_angle_beta   106.67602811
_cell_angle_gamma   106.73377665
_symmetry_Int_Tables_number   1
_chemical_formula_structural   LiAlOF
_chemical_formula_sum   'Li1 Al1 O1 F1'
_cell_volume   56.41490655
_cell_formula_units_Z   1
loop_
 _symmetry_equiv_pos_site_id
 _symmetry_equiv_pos_as_xyz
  1  'x, y, z'
loop_
 _atom_site_type_symbol
 _atom_site_label
 _atom_site_symmetry_multiplicity
 _atom_site_fract_x
 _atom_site_fract_y
 _atom_site_fract_z
 _atom_site_occupancy
  F  F0  1  0.12500000  0.00000000  0.25000000  1
  O  O1  1  0.00000000  0.00000000  0.00000000  1
  Al  Al2  1  0.37500000  0.00000000  0.25000000  1
  Li  Li3  1  0.25000000  0.25000000  0.25000000  1
