# generated using pymatgen
data_LiF
_symmetry_space_group_name_H-M   'P 1'
_cell_length_a   6.00141001
_cell_length_b   12.09942544
_cell_length_c   10.67490015
_cell_angle_alpha   90.00000000
_cell_angle_beta   90.00000000
_cell_angle_gamma   90.00000000
_symmetry_Int_Tables_number   1
_chemical_formula_structural   LiF
_chemical_formula_sum   'Li24 F24'
_cell_volume   775.14306738
_cell_formula_units_Z   24
loop_
 _symmetry_equiv_pos_site_id
 _symmetry_equiv_pos_as_xyz
  1  'x, y, z'
loop_
 _atom_site_type_symbol
 _atom_site_label
 _atom_site_symmetry_multiplicity
 _atom_site_fract_x
 _atom_site_fract_y
 _atom_site_fract_z
 _atom_site_occupancy
  F  F0  1  0.07901225  0.80213991  0.50000000  1
  F  F1  1  0.92098775  0.19786009  0.50000000  1
  F  F2  1  0.42098775  0.30213991  0.50000000  1
  F  F3  1  0.57901225  0.69786009  0.50000000  1
  F  F4  1  0.75103979  0.19415613  0.05461492  1
  F  F5  1  -0.75103979  -0.19415613  0.05461492  1
  F  F6  1  -0.25103979  0.69415613  -0.05461492  1
  F  F7  1  1.25103979  0.30584387  -0.05461492  1
  F  F8  1  -0.75103979  -0.19415613  -0.05461492  1
  F  F9  1  0.75103979  0.19415613  -0.05461492  1
  F  F10  1  1.25103979  0.30584387  0.05461492  1
  F  F11  1  -0.25103979  0.69415613  0.05461492  1
  F  F12  1  0.43478605  0.68857380  0.83777222  1
  F  F13  1  0.56521395  0.31142620  0.83777222  1
  F  F14  1  0.06521395  0.18857380  0.16222778  1
  F  F15  1  0.93478605  0.81142620  0.16222778  1
  F  F16  1  0.56521395  0.31142620  0.16222778  1
  F  F17  1  0.43478605  0.68857380  0.16222778  1
  F  F18  1  0.93478605  0.81142620  0.83777222  1
  F  F19  1  0.06521395  0.18857380  0.83777222  1
  F  F20  1  0.98751393  0.96512507  -0.00000000  1
  F  F21  1  0.01248607  0.03487493  0.00000000  1
  F  F22  1  0.51248607  0.46512507  -0.00000000  1
  F  F23  1  0.48751393  0.53487493  -0.00000000  1
  Li  Li24  1  0.97395617  0.44601404  0.18936613  1
  Li  Li25  1  0.02604383  0.55398596  0.18936613  1
  Li  Li26  1  0.52604383  0.94601404  0.81063387  1
  Li  Li27  1  0.47395617  0.05398596  0.81063387  1
  Li  Li28  1  0.02604383  0.55398596  0.81063387  1
  Li  Li29  1  0.97395617  0.44601404  0.81063387  1
  Li  Li30  1  0.47395617  0.05398596  0.18936613  1
  Li  Li31  1  0.52604383  0.94601404  0.18936613  1
  Li  Li32  1  0.00000000  0.50000000  0.50000000  1
  Li  Li33  1  0.50000000  -0.00000000  0.50000000  1
  Li  Li34  1  0.00000000  0.00000000  0.50000000  1
  Li  Li35  1  0.50000000  0.50000000  0.50000000  1
  Li  Li36  1  0.59887725  0.16310142  0.20380347  1
  Li  Li37  1  0.40112275  0.83689858  0.20380347  1
  Li  Li38  1  0.90112275  0.66310142  0.79619653  1
  Li  Li39  1  0.09887725  0.33689858  0.79619653  1
  Li  Li40  1  0.40112275  0.83689858  0.79619653  1
  Li  Li41  1  0.59887725  0.16310142  0.79619653  1
  Li  Li42  1  0.09887725  0.33689858  0.20380347  1
  Li  Li43  1  0.90112275  0.66310142  0.20380347  1
  Li  Li44  1  0.01813726  0.79052376  -0.00000000  1
  Li  Li45  1  0.98186274  0.20947624  -0.00000000  1
  Li  Li46  1  0.48186274  0.29052376  -0.00000000  1
  Li  Li47  1  0.51813726  0.70947624  0.00000000  1
