# generated using pymatgen
data_Li2Mo2P2Se
_symmetry_space_group_name_H-M   'P 1'
_cell_length_a   4.51783125
_cell_length_b   4.91120887
_cell_length_c   6.07676346
_cell_angle_alpha   92.79252346
_cell_angle_beta   96.77687922
_cell_angle_gamma   101.78292074
_symmetry_Int_Tables_number   1
_chemical_formula_structural   Li2Mo2P2Se
_chemical_formula_sum   'Li2 Mo2 P2 Se1'
_cell_volume   130.69976184
_cell_formula_units_Z   1
loop_
 _symmetry_equiv_pos_site_id
 _symmetry_equiv_pos_as_xyz
  1  'x, y, z'
loop_
 _atom_site_type_symbol
 _atom_site_label
 _atom_site_symmetry_multiplicity
 _atom_site_fract_x
 _atom_site_fract_y
 _atom_site_fract_z
 _atom_site_occupancy
  Se  Se0  1  0.12500000  0.12500000  0.12500000  1
  P  P1  1  0.50000000  0.50000000  0.50000000  1
  P  P2  1  0.25000000  0.25000000  0.25000000  1
  Mo  Mo3  1  0.75000000  0.75000000  0.75000000  1
  Mo  Mo4  1  0.38682355  0.78524305  0.96603185  1
  Li  Li5  1  0.07836127  0.79304075  0.63460031  1
  Li  Li6  1  0.20413908  0.26853265  0.44011166  1
