# generated using pymatgen
data_LiF
_symmetry_space_group_name_H-M   'P 1'
_cell_length_a   9.93582303
_cell_length_b   9.93582303
_cell_length_c   13.48370282
_cell_angle_alpha   90.00000000
_cell_angle_beta   90.00000000
_cell_angle_gamma   120.00000000
_symmetry_Int_Tables_number   1
_chemical_formula_structural   LiF
_chemical_formula_sum   'Li41 F41'
_cell_volume   1152.78282972
_cell_formula_units_Z   41
loop_
 _symmetry_equiv_pos_site_id
 _symmetry_equiv_pos_as_xyz
  1  'x, y, z'
loop_
 _atom_site_type_symbol
 _atom_site_label
 _atom_site_symmetry_multiplicity
 _atom_site_fract_x
 _atom_site_fract_y
 _atom_site_fract_z
 _atom_site_occupancy
  F  F0  1  0.32276654  0.49196226  0.64852031  1
  F  F1  1  0.50803774  0.83080428  0.64852031  1
  F  F2  1  0.16919572  0.67723346  0.64852031  1
  F  F3  1  0.50803774  0.67723346  0.35147969  1
  F  F4  1  0.16919572  0.49196226  0.35147969  1
  F  F5  1  0.32276654  0.83080428  0.35147969  1
  F  F6  1  0.94097906  0.74893466  0.52155494  1
  F  F7  1  0.25106534  0.19204439  0.52155494  1
  F  F8  1  0.80795561  0.05902094  0.52155494  1
  F  F9  1  0.25106534  0.05902094  0.47844506  1
  F  F10  1  0.80795561  0.74893466  0.47844506  1
  F  F11  1  0.94097906  0.19204439  0.47844506  1
  F  F12  1  0.89681195  0.04171147  0.42423775  1
  F  F13  1  0.95828853  0.85510047  0.42423775  1
  F  F14  1  0.14489953  0.10318805  0.42423775  1
  F  F15  1  0.95828853  0.10318805  0.57576225  1
  F  F16  1  0.14489953  0.04171147  0.57576225  1
  F  F17  1  0.89681195  0.85510047  0.57576225  1
  F  F18  1  0.88975294  0.86504274  0.37702835  1
  F  F19  1  0.13495726  0.02471020  0.37702835  1
  F  F20  1  0.97528980  0.11024706  0.37702835  1
  F  F21  1  0.13495726  0.11024706  0.62297165  1
  F  F22  1  0.97528980  0.86504274  0.62297165  1
  F  F23  1  0.88975294  0.02471020  0.62297165  1
  F  F24  1  0.33333333  0.66666667  0.65456921  1
  F  F25  1  0.33333333  0.66666667  0.34543079  1
  F  F26  1  0.95400418  0.77092810  0.94592021  1
  F  F27  1  0.22907190  0.18307607  0.94592021  1
  F  F28  1  0.81692393  0.04599582  0.94592021  1
  F  F29  1  0.22907190  0.04599582  0.05407979  1
  F  F30  1  0.81692393  0.77092810  0.05407979  1
  F  F31  1  0.95400418  0.18307607  0.05407979  1
  F  F32  1  0.33474632  0.38672528  0.60847059  1
  F  F33  1  0.61327472  0.94802104  0.60847059  1
  F  F34  1  0.05197896  0.66525368  0.60847059  1
  F  F35  1  0.61327472  0.66525368  0.39152941  1
  F  F36  1  0.05197896  0.38672528  0.39152941  1
  F  F37  1  0.33474632  0.94802104  0.39152941  1
  F  F38  1  0.52284299  0.47715701  0.50000000  1
  F  F39  1  0.52284299  0.04568599  0.50000000  1
  F  F40  1  0.95431401  0.47715701  0.50000000  1
  Li  Li41  1  0.33271697  0.79009449  0.54836863  1
  Li  Li42  1  -0.79009449  -0.45737752  0.54836863  1
  Li  Li43  1  0.45737752  -0.33271697  0.54836863  1
  Li  Li44  1  -0.79009449  -0.33271697  -0.54836863  1
  Li  Li45  1  0.45737752  0.79009449  -0.54836863  1
  Li  Li46  1  0.33271697  -0.45737752  -0.54836863  1
  Li  Li47  1  0.87579494  0.47616949  0.36474125  1
  Li  Li48  1  0.52383051  0.39962545  0.36474125  1
  Li  Li49  1  0.60037455  0.12420506  0.36474125  1
  Li  Li50  1  0.52383051  0.12420506  0.63525875  1
  Li  Li51  1  0.60037455  0.47616949  0.63525875  1
  Li  Li52  1  0.87579494  0.39962545  0.63525875  1
  Li  Li53  1  0.37833937  0.62166063  0.00000000  1
  Li  Li54  1  0.37833937  0.75667873  0.00000000  1
  Li  Li55  1  0.24332127  0.62166063  0.00000000  1
  Li  Li56  1  0.66666667  0.33333333  0.50000000  1
  Li  Li57  1  0.33333333  0.66666667  0.84307542  1
  Li  Li58  1  0.33333333  0.66666667  0.15692458  1
  Li  Li59  1  0.24094845  0.46700140  0.05253240  1
  Li  Li60  1  0.53299860  0.77394705  0.05253240  1
  Li  Li61  1  0.22605295  0.75905155  0.05253240  1
  Li  Li62  1  0.53299860  0.75905155  0.94746760  1
  Li  Li63  1  0.22605295  0.46700140  0.94746760  1
  Li  Li64  1  0.24094845  0.77394705  0.94746760  1
  Li  Li65  1  0.88663129  0.25545992  0.43349501  1
  Li  Li66  1  0.74454008  0.63117137  0.43349501  1
  Li  Li67  1  0.36882863  0.11336871  0.43349501  1
  Li  Li68  1  0.74454008  0.11336871  0.56650499  1
  Li  Li69  1  0.36882863  0.25545992  0.56650499  1
  Li  Li70  1  0.88663129  0.63117137  0.56650499  1
  Li  Li71  1  0.33737924  0.89378058  0.78914013  1
  Li  Li72  1  0.10621942  0.44359866  0.78914013  1
  Li  Li73  1  0.55640134  0.66262076  0.78914013  1
  Li  Li74  1  0.10621942  0.66262076  0.21085987  1
  Li  Li75  1  0.55640134  0.89378058  0.21085987  1
  Li  Li76  1  0.33737924  0.44359866  0.21085987  1
  Li  Li77  1  0.16236741  0.83763259  -0.00000000  1
  Li  Li78  1  0.16236741  0.32473483  0.00000000  1
  Li  Li79  1  0.67526517  0.83763259  -0.00000000  1
  Li  Li80  1  0.00000000  0.00000000  0.37716332  1
  Li  Li81  1  0.00000000  0.00000000  0.62283668  1
