# generated using pymatgen
data_LiF
_symmetry_space_group_name_H-M   'P 1'
_cell_length_a   11.04743597
_cell_length_b   9.18806364
_cell_length_c   6.50397220
_cell_angle_alpha   90.00000000
_cell_angle_beta   90.00000000
_cell_angle_gamma   90.00000000
_symmetry_Int_Tables_number   1
_chemical_formula_structural   LiF
_chemical_formula_sum   'Li24 F24'
_cell_volume   660.18273714
_cell_formula_units_Z   24
loop_
 _symmetry_equiv_pos_site_id
 _symmetry_equiv_pos_as_xyz
  1  'x, y, z'
loop_
 _atom_site_type_symbol
 _atom_site_label
 _atom_site_symmetry_multiplicity
 _atom_site_fract_x
 _atom_site_fract_y
 _atom_site_fract_z
 _atom_site_occupancy
  F  F0  1  0.31138534  0.64121417  0.86163169  1
  F  F1  1  0.68861466  0.35878583  0.86163169  1
  F  F2  1  0.18861466  0.14121417  0.63836831  1
  F  F3  1  0.81138534  0.85878583  0.63836831  1
  F  F4  1  0.68861466  0.35878583  0.13836831  1
  F  F5  1  0.31138534  0.64121417  0.13836831  1
  F  F6  1  0.81138534  0.85878583  0.36163169  1
  F  F7  1  0.18861466  0.14121417  0.36163169  1
  F  F8  1  0.59142055  0.21598079  0.19694881  1
  F  F9  1  0.40857945  0.78401921  0.19694881  1
  F  F10  1  0.90857945  0.71598079  0.30305119  1
  F  F11  1  0.09142055  0.28401921  0.30305119  1
  F  F12  1  0.40857945  0.78401921  0.80305119  1
  F  F13  1  0.59142055  0.21598079  0.80305119  1
  F  F14  1  0.09142055  0.28401921  0.69694881  1
  F  F15  1  0.90857945  0.71598079  0.69694881  1
  F  F16  1  0.96881205  0.74133612  0.78805220  1
  F  F17  1  0.03118795  0.25866388  0.78805220  1
  F  F18  1  0.53118795  0.24133612  0.71194780  1
  F  F19  1  0.46881205  0.75866388  0.71194780  1
  F  F20  1  0.03118795  0.25866388  0.21194780  1
  F  F21  1  0.96881205  0.74133612  0.21194780  1
  F  F22  1  0.46881205  0.75866388  0.28805220  1
  F  F23  1  0.53118795  0.24133612  0.28805220  1
  Li  Li24  1  0.00000000  0.50000000  0.00000000  1
  Li  Li25  1  0.50000000  0.00000000  0.50000000  1
  Li  Li26  1  0.11738302  0.43139458  0.00000000  1
  Li  Li27  1  0.88261698  0.56860542  0.00000000  1
  Li  Li28  1  0.38261698  0.93139458  0.50000000  1
  Li  Li29  1  0.61738302  0.06860542  0.50000000  1
  Li  Li30  1  0.09924071  0.78601992  0.69916840  1
  Li  Li31  1  -0.09924071  -0.78601992  0.69916840  1
  Li  Li32  1  0.40075929  1.28601992  -0.19916840  1
  Li  Li33  1  0.59924071  -0.28601992  -0.19916840  1
  Li  Li34  1  -0.09924071  -0.78601992  -0.69916840  1
  Li  Li35  1  0.09924071  0.78601992  -0.69916840  1
  Li  Li36  1  0.59924071  -0.28601992  1.19916840  1
  Li  Li37  1  0.40075929  1.28601992  1.19916840  1
  Li  Li38  1  0.10617787  0.93468514  0.00000000  1
  Li  Li39  1  0.89382213  0.06531486  -0.00000000  1
  Li  Li40  1  0.39382213  0.43468514  0.50000000  1
  Li  Li41  1  0.60617787  0.56531486  0.50000000  1
  Li  Li42  1  0.00000000  0.50000000  0.50000000  1
  Li  Li43  1  0.50000000  0.00000000  -0.00000000  1
  Li  Li44  1  0.00000000  0.00000000  0.33447225  1
  Li  Li45  1  0.50000000  0.50000000  0.16552775  1
  Li  Li46  1  0.00000000  0.00000000  0.66552775  1
  Li  Li47  1  0.50000000  0.50000000  0.83447225  1
