# generated using pymatgen
data_LiF
_symmetry_space_group_name_H-M   'P 1'
_cell_length_a   6.48096641
_cell_length_b   6.48096641
_cell_length_c   6.06154179
_cell_angle_alpha   90.00000000
_cell_angle_beta   90.00000000
_cell_angle_gamma   120.00000000
_symmetry_Int_Tables_number   1
_chemical_formula_structural   LiF
_chemical_formula_sum   'Li12 F12'
_cell_volume   220.49222349
_cell_formula_units_Z   12
loop_
 _symmetry_equiv_pos_site_id
 _symmetry_equiv_pos_as_xyz
  1  'x, y, z'
loop_
 _atom_site_type_symbol
 _atom_site_label
 _atom_site_symmetry_multiplicity
 _atom_site_fract_x
 _atom_site_fract_y
 _atom_site_fract_z
 _atom_site_occupancy
  F  F0  1  0.45055467  0.48763407  0.92878056  1
  F  F1  1  0.51236593  0.96292060  0.92878056  1
  F  F2  1  0.03707940  0.54944533  0.92878056  1
  F  F3  1  0.51236593  0.54944533  0.07121944  1
  F  F4  1  0.03707940  0.48763407  0.07121944  1
  F  F5  1  0.45055467  0.96292060  0.07121944  1
  F  F6  1  0.61983969  0.99079485  0.13265166  1
  F  F7  1  0.00920515  0.62904484  0.13265166  1
  F  F8  1  0.37095516  0.38016031  0.13265166  1
  F  F9  1  0.00920515  0.38016031  0.86734834  1
  F  F10  1  0.37095516  0.99079485  0.86734834  1
  F  F11  1  0.61983969  0.62904484  0.86734834  1
  Li  Li12  1  0.66666667  0.33333333  -0.00000000  1
  Li  Li13  1  0.21974236  0.17871848  0.13817233  1
  Li  Li14  1  -0.17871848  0.04102387  0.13817233  1
  Li  Li15  1  -0.04102387  -0.21974236  0.13817233  1
  Li  Li16  1  -0.17871848  -0.21974236  -0.13817233  1
  Li  Li17  1  -0.04102387  0.17871848  -0.13817233  1
  Li  Li18  1  0.21974236  0.04102387  -0.13817233  1
  Li  Li19  1  0.49047863  0.50952137  0.50000000  1
  Li  Li20  1  0.49047863  0.98095727  0.50000000  1
  Li  Li21  1  0.01904273  0.50952137  0.50000000  1
  Li  Li22  1  0.00000000  0.00000000  0.00000000  1
  Li  Li23  1  0.66666667  0.33333333  0.50000000  1
