# generated using pymatgen
data_LiF
_symmetry_space_group_name_H-M   'P 1'
_cell_length_a   6.72446166
_cell_length_b   6.72446166
_cell_length_c   5.46052933
_cell_angle_alpha   90.00000000
_cell_angle_beta   90.00000000
_cell_angle_gamma   120.00000000
_symmetry_Int_Tables_number   1
_chemical_formula_structural   LiF
_chemical_formula_sum   'Li14 F14'
_cell_volume   213.83580209
_cell_formula_units_Z   14
loop_
 _symmetry_equiv_pos_site_id
 _symmetry_equiv_pos_as_xyz
  1  'x, y, z'
loop_
 _atom_site_type_symbol
 _atom_site_label
 _atom_site_symmetry_multiplicity
 _atom_site_fract_x
 _atom_site_fract_y
 _atom_site_fract_z
 _atom_site_occupancy
  F  F0  1  0.00000000  0.00000000  0.00000000  1
  F  F1  1  0.00000000  0.00000000  0.50000000  1
  F  F2  1  0.02558784  0.80389160  0.59070247  1
  F  F3  1  0.19610840  0.22169624  0.59070247  1
  F  F4  1  0.77830376  0.97441216  0.59070247  1
  F  F5  1  0.19610840  0.97441216  0.40929753  1
  F  F6  1  0.77830376  0.80389160  0.40929753  1
  F  F7  1  0.02558784  0.22169624  0.40929753  1
  F  F8  1  0.95615876  0.75804151  0.72875040  1
  F  F9  1  0.24195849  0.19811725  0.72875040  1
  F  F10  1  0.80188275  0.04384124  0.72875040  1
  F  F11  1  0.24195849  0.04384124  0.27124960  1
  F  F12  1  0.80188275  0.75804151  0.27124960  1
  F  F13  1  0.95615876  0.19811725  0.27124960  1
  Li  Li14  1  0.33333333  0.66666667  0.22761162  1
  Li  Li15  1  0.33333333  0.66666667  0.77238838  1
  Li  Li16  1  0.33333333  0.66666667  0.50000000  1
  Li  Li17  1  0.77686614  0.22313386  0.50000000  1
  Li  Li18  1  0.77686614  0.55373227  0.50000000  1
  Li  Li19  1  0.44626773  0.22313386  0.50000000  1
  Li  Li20  1  0.29443007  0.36380488  0.44363106  1
  Li  Li21  1  -0.36380488  -0.06937481  0.44363106  1
  Li  Li22  1  0.06937481  -0.29443007  0.44363106  1
  Li  Li23  1  -0.36380488  -0.29443007  -0.44363106  1
  Li  Li24  1  0.06937481  0.36380488  -0.44363106  1
  Li  Li25  1  0.29443007  -0.06937481  -0.44363106  1
  Li  Li26  1  0.66666667  0.33333333  0.66273576  1
  Li  Li27  1  0.66666667  0.33333333  0.33726424  1
