# generated using pymatgen
data_LiF
_symmetry_space_group_name_H-M   'P 1'
_cell_length_a   6.16990821
_cell_length_b   5.84415953
_cell_length_c   26.31461341
_cell_angle_alpha   90.00000000
_cell_angle_beta   90.00000000
_cell_angle_gamma   90.00000000
_symmetry_Int_Tables_number   1
_chemical_formula_structural   LiF
_chemical_formula_sum   'Li50 F50'
_cell_volume   948.85043225
_cell_formula_units_Z   50
loop_
 _symmetry_equiv_pos_site_id
 _symmetry_equiv_pos_as_xyz
  1  'x, y, z'
loop_
 _atom_site_type_symbol
 _atom_site_label
 _atom_site_symmetry_multiplicity
 _atom_site_fract_x
 _atom_site_fract_y
 _atom_site_fract_z
 _atom_site_occupancy
  F  F0  1  0.36946034  0.17981294  0.06231230  1
  F  F1  1  0.63053966  0.82018706  0.06231230  1
  F  F2  1  0.13053966  0.67981294  0.43768770  1
  F  F3  1  0.86946034  0.32018706  0.43768770  1
  F  F4  1  0.63053966  0.82018706  0.93768770  1
  F  F5  1  0.36946034  0.17981294  0.93768770  1
  F  F6  1  0.86946034  0.32018706  0.56231230  1
  F  F7  1  0.13053966  0.67981294  0.56231230  1
  F  F8  1  0.10508458  0.80831225  -0.00000000  1
  F  F9  1  0.89491542  0.19168775  0.00000000  1
  F  F10  1  0.39491542  0.30831225  0.50000000  1
  F  F11  1  0.60508458  0.69168775  0.50000000  1
  F  F12  1  0.00000000  0.50000000  0.10810332  1
  F  F13  1  0.50000000  0.00000000  0.39189668  1
  F  F14  1  0.00000000  0.50000000  0.89189668  1
  F  F15  1  0.50000000  0.00000000  0.60810332  1
  F  F16  1  0.58170624  0.54959540  0.67638778  1
  F  F17  1  0.41829376  0.45040460  0.67638778  1
  F  F18  1  0.91829376  0.04959540  0.82361222  1
  F  F19  1  0.08170624  0.95040460  0.82361222  1
  F  F20  1  0.41829376  0.45040460  0.32361222  1
  F  F21  1  0.58170624  0.54959540  0.32361222  1
  F  F22  1  0.08170624  0.95040460  0.17638778  1
  F  F23  1  0.91829376  0.04959540  0.17638778  1
  F  F24  1  0.18121431  0.58011300  0.23611157  1
  F  F25  1  0.81878569  0.41988700  0.23611157  1
  F  F26  1  0.31878569  0.08011300  0.26388843  1
  F  F27  1  0.68121431  0.91988700  0.26388843  1
  F  F28  1  0.81878569  0.41988700  0.76388843  1
  F  F29  1  0.18121431  0.58011300  0.76388843  1
  F  F30  1  0.68121431  0.91988700  0.73611157  1
  F  F31  1  0.31878569  0.08011300  0.73611157  1
  F  F32  1  0.00000000  0.50000000  0.00000000  1
  F  F33  1  0.50000000  0.00000000  0.50000000  1
  F  F34  1  0.00000000  0.50000000  0.42330680  1
  F  F35  1  0.50000000  0.00000000  0.07669320  1
  F  F36  1  0.00000000  0.50000000  0.57669320  1
  F  F37  1  0.50000000  0.00000000  0.92330680  1
  F  F38  1  0.41985731  0.99618946  0.57812745  1
  F  F39  1  0.58014269  0.00381054  0.57812745  1
  F  F40  1  0.08014269  0.49618946  0.92187255  1
  F  F41  1  0.91985731  0.50381054  0.92187255  1
  F  F42  1  0.58014269  0.00381054  0.42187255  1
  F  F43  1  0.41985731  0.99618946  0.42187255  1
  F  F44  1  0.91985731  0.50381054  0.07812745  1
  F  F45  1  0.08014269  0.49618946  0.07812745  1
  F  F46  1  0.54245569  0.34710053  -0.00000000  1
  F  F47  1  0.45754431  0.65289947  0.00000000  1
  F  F48  1  0.95754431  0.84710053  0.50000000  1
  F  F49  1  0.04245569  0.15289947  0.50000000  1
  Li  Li50  1  0.00000000  0.00000000  0.00000000  1
  Li  Li51  1  0.50000000  0.50000000  0.50000000  1
  Li  Li52  1  0.00000000  0.00000000  0.44538008  1
  Li  Li53  1  0.50000000  0.50000000  0.05461992  1
  Li  Li54  1  0.00000000  0.00000000  0.55461992  1
  Li  Li55  1  0.50000000  0.50000000  0.94538008  1
  Li  Li56  1  0.66048914  0.91039289  0.16518930  1
  Li  Li57  1  -0.66048914  -0.91039289  0.16518930  1
  Li  Li58  1  -0.16048914  1.41039289  0.33481070  1
  Li  Li59  1  1.16048914  -0.41039289  0.33481070  1
  Li  Li60  1  -0.66048914  -0.91039289  -0.16518930  1
  Li  Li61  1  0.66048914  0.91039289  -0.16518930  1
  Li  Li62  1  1.16048914  -0.41039289  0.66518930  1
  Li  Li63  1  -0.16048914  1.41039289  0.66518930  1
  Li  Li64  1  0.31180307  0.41346162  0.93289454  1
  Li  Li65  1  0.68819693  0.58653838  0.93289454  1
  Li  Li66  1  0.18819693  0.91346162  0.56710546  1
  Li  Li67  1  0.81180307  0.08653838  0.56710546  1
  Li  Li68  1  0.68819693  0.58653838  0.06710546  1
  Li  Li69  1  0.31180307  0.41346162  0.06710546  1
  Li  Li70  1  0.81180307  0.08653838  0.43289454  1
  Li  Li71  1  0.18819693  0.91346162  0.43289454  1
  Li  Li72  1  0.61473480  0.00104745  0.46880228  1
  Li  Li73  1  0.38526520  0.99895255  0.46880228  1
  Li  Li74  1  0.88526520  0.50104745  0.03119772  1
  Li  Li75  1  0.11473480  0.49895255  0.03119772  1
  Li  Li76  1  0.38526520  0.99895255  0.53119772  1
  Li  Li77  1  0.61473480  0.00104745  0.53119772  1
  Li  Li78  1  0.11473480  0.49895255  0.96880228  1
  Li  Li79  1  0.88526520  0.50104745  0.96880228  1
  Li  Li80  1  0.86467088  0.05690239  0.12415974  1
  Li  Li81  1  0.13532912  0.94309761  0.12415974  1
  Li  Li82  1  0.63532912  0.55690239  0.37584026  1
  Li  Li83  1  0.36467088  0.44309761  0.37584026  1
  Li  Li84  1  0.13532912  0.94309761  0.87584026  1
  Li  Li85  1  0.86467088  0.05690239  0.87584026  1
  Li  Li86  1  0.36467088  0.44309761  0.62415974  1
  Li  Li87  1  0.63532912  0.55690239  0.62415974  1
  Li  Li88  1  0.69512044  0.26403679  0.00000000  1
  Li  Li89  1  0.30487956  0.73596321  0.00000000  1
  Li  Li90  1  0.80487956  0.76403679  0.50000000  1
  Li  Li91  1  0.19512044  0.23596321  0.50000000  1
  Li  Li92  1  0.07309737  0.39596468  0.14492358  1
  Li  Li93  1  0.92690263  0.60403532  0.14492358  1
  Li  Li94  1  0.42690263  0.89596468  0.35507642  1
  Li  Li95  1  0.57309737  0.10403532  0.35507642  1
  Li  Li96  1  0.92690263  0.60403532  0.85507642  1
  Li  Li97  1  0.07309737  0.39596468  0.85507642  1
  Li  Li98  1  0.57309737  0.10403532  0.64492358  1
  Li  Li99  1  0.42690263  0.89596468  0.64492358  1
