# generated using pymatgen
data_Li3ScTiF
_symmetry_space_group_name_H-M   'P 1'
_cell_length_a   3.15407794
_cell_length_b   3.07693366
_cell_length_c   6.18156267
_cell_angle_alpha   115.23374190
_cell_angle_beta   103.75453583
_cell_angle_gamma   109.65898089
_symmetry_Int_Tables_number   1
_chemical_formula_structural   Li3ScTiF
_chemical_formula_sum   'Li3 Sc1 Ti1 F1'
_cell_volume   45.70176051
_cell_formula_units_Z   1
loop_
 _symmetry_equiv_pos_site_id
 _symmetry_equiv_pos_as_xyz
  1  'x, y, z'
loop_
 _atom_site_type_symbol
 _atom_site_label
 _atom_site_symmetry_multiplicity
 _atom_site_fract_x
 _atom_site_fract_y
 _atom_site_fract_z
 _atom_site_occupancy
  F  F0  1  0.00000000  0.00000000  0.00000000  1
  Li  Li1  1  0.50000000  0.50000000  0.50000000  1
  Li  Li2  1  0.50000000  0.50000000  0.00000000  1
  Li  Li3  1  0.50000000  0.00000000  0.50000000  1
  Sc  Sc4  1  0.00000000  0.50000000  0.50000000  1
  Ti  Ti5  1  0.23232394  0.15582494  0.53696276  1
