# generated using pymatgen
data_LiAlF
_symmetry_space_group_name_H-M   'P 1'
_cell_length_a   3.19970478
_cell_length_b   2.99952284
_cell_length_c   5.41353933
_cell_angle_alpha   104.15373916
_cell_angle_beta   102.74070467
_cell_angle_gamma   103.75714357
_symmetry_Int_Tables_number   1
_chemical_formula_structural   LiAlF
_chemical_formula_sum   'Li1 Al1 F1'
_cell_volume   46.74302236
_cell_formula_units_Z   1
loop_
 _symmetry_equiv_pos_site_id
 _symmetry_equiv_pos_as_xyz
  1  'x, y, z'
loop_
 _atom_site_type_symbol
 _atom_site_label
 _atom_site_symmetry_multiplicity
 _atom_site_fract_x
 _atom_site_fract_y
 _atom_site_fract_z
 _atom_site_occupancy
  F  F0  1  0.00000000  0.00000000  0.00000000  1
  Al  Al1  1  0.50000000  0.50000000  0.50000000  1
  Li  Li2  1  0.25000000  0.25000000  0.25000000  1
