# generated using pymatgen
data_LiF
_symmetry_space_group_name_H-M   'P 1'
_cell_length_a   8.52268815
_cell_length_b   8.52268815
_cell_length_c   25.46787837
_cell_angle_alpha   90.00000000
_cell_angle_beta   90.00000000
_cell_angle_gamma   90.00000000
_symmetry_Int_Tables_number   1
_chemical_formula_structural   LiF
_chemical_formula_sum   'Li64 F64'
_cell_volume   1849.89024443
_cell_formula_units_Z   64
loop_
 _symmetry_equiv_pos_site_id
 _symmetry_equiv_pos_as_xyz
  1  'x, y, z'
loop_
 _atom_site_type_symbol
 _atom_site_label
 _atom_site_symmetry_multiplicity
 _atom_site_fract_x
 _atom_site_fract_y
 _atom_site_fract_z
 _atom_site_occupancy
  F  F0  1  0.00000000  0.25000000  0.43400873  1
  F  F1  1  0.00000000  0.75000000  0.68400873  1
  F  F2  1  0.50000000  0.25000000  0.56599127  1
  F  F3  1  0.50000000  0.75000000  0.31599127  1
  F  F4  1  0.00000000  0.75000000  0.56599127  1
  F  F5  1  0.00000000  0.25000000  0.31599127  1
  F  F6  1  0.50000000  0.75000000  0.43400873  1
  F  F7  1  0.50000000  0.25000000  0.68400873  1
  F  F8  1  0.50000000  0.75000000  0.93400873  1
  F  F9  1  0.50000000  0.25000000  0.18400873  1
  F  F10  1  0.00000000  0.75000000  0.06599127  1
  F  F11  1  0.00000000  0.25000000  0.81599127  1
  F  F12  1  0.50000000  0.25000000  0.06599127  1
  F  F13  1  0.50000000  0.75000000  0.81599127  1
  F  F14  1  0.00000000  0.25000000  0.93400873  1
  F  F15  1  0.00000000  0.75000000  0.18400873  1
  F  F16  1  0.00000000  0.00000000  0.00000000  1
  F  F17  1  0.50000000  0.00000000  0.50000000  1
  F  F18  1  0.25000000  0.75000000  0.25000000  1
  F  F19  1  0.25000000  0.25000000  0.75000000  1
  F  F20  1  0.50000000  0.00000000  0.00000000  1
  F  F21  1  0.00000000  0.00000000  0.50000000  1
  F  F22  1  0.25000000  0.75000000  0.75000000  1
  F  F23  1  0.25000000  0.25000000  0.25000000  1
  F  F24  1  0.50000000  0.50000000  0.50000000  1
  F  F25  1  0.00000000  0.50000000  0.00000000  1
  F  F26  1  0.75000000  0.25000000  0.75000000  1
  F  F27  1  0.75000000  0.75000000  0.25000000  1
  F  F28  1  0.00000000  0.50000000  0.50000000  1
  F  F29  1  0.50000000  0.50000000  0.00000000  1
  F  F30  1  0.75000000  0.25000000  0.25000000  1
  F  F31  1  0.75000000  0.75000000  0.75000000  1
  F  F32  1  0.47140461  -0.00000000  0.25000000  1
  F  F33  1  0.02859539  0.00000000  0.75000000  1
  F  F34  1  0.25000000  0.22140461  0.50000000  1
  F  F35  1  0.25000000  0.77859539  -0.00000000  1
  F  F36  1  0.52859539  0.00000000  0.75000000  1
  F  F37  1  0.97140461  0.00000000  0.25000000  1
  F  F38  1  0.75000000  0.77859539  0.50000000  1
  F  F39  1  0.75000000  0.22140461  0.00000000  1
  F  F40  1  0.97140461  0.50000000  0.75000000  1
  F  F41  1  0.52859539  0.50000000  0.25000000  1
  F  F42  1  0.75000000  0.72140461  0.00000000  1
  F  F43  1  0.75000000  0.27859539  0.50000000  1
  F  F44  1  0.02859539  0.50000000  0.25000000  1
  F  F45  1  0.47140461  0.50000000  0.75000000  1
  F  F46  1  0.25000000  0.27859539  0.00000000  1
  F  F47  1  0.25000000  0.72140461  0.50000000  1
  F  F48  1  0.00000000  0.25000000  0.35138698  1
  F  F49  1  0.00000000  0.75000000  0.60138698  1
  F  F50  1  0.50000000  0.25000000  0.64861302  1
  F  F51  1  0.50000000  0.75000000  0.39861302  1
  F  F52  1  0.00000000  0.75000000  0.64861302  1
  F  F53  1  0.00000000  0.25000000  0.39861302  1
  F  F54  1  0.50000000  0.75000000  0.35138698  1
  F  F55  1  0.50000000  0.25000000  0.60138698  1
  F  F56  1  0.50000000  0.75000000  0.85138698  1
  F  F57  1  0.50000000  0.25000000  0.10138698  1
  F  F58  1  0.00000000  0.75000000  0.14861302  1
  F  F59  1  0.00000000  0.25000000  0.89861302  1
  F  F60  1  0.50000000  0.25000000  0.14861302  1
  F  F61  1  0.50000000  0.75000000  0.89861302  1
  F  F62  1  0.00000000  0.25000000  0.85138698  1
  F  F63  1  0.00000000  0.75000000  0.10138698  1
  Li  Li64  1  0.31213964  0.15182928  0.27465083  1
  Li  Li65  1  0.18786036  -0.15182928  0.77465083  1
  Li  Li66  1  0.09817072  1.06213964  0.52465083  1
  Li  Li67  1  0.40182928  -0.06213964  1.02465083  1
  Li  Li68  1  0.18786036  0.15182928  -0.27465083  1
  Li  Li69  1  0.31213964  -0.15182928  0.22534917  1
  Li  Li70  1  0.40182928  1.06213964  0.47534917  1
  Li  Li71  1  0.09817072  -0.06213964  -0.02465083  1
  Li  Li72  1  -0.31213964  -0.15182928  -0.27465083  1
  Li  Li73  1  0.81213964  0.15182928  0.22534917  1
  Li  Li74  1  0.90182928  -0.06213964  0.47534917  1
  Li  Li75  1  0.59817072  1.06213964  -0.02465083  1
  Li  Li76  1  0.81213964  -0.15182928  0.27465083  1
  Li  Li77  1  -0.31213964  0.15182928  0.77465083  1
  Li  Li78  1  0.59817072  -0.06213964  0.52465083  1
  Li  Li79  1  0.90182928  1.06213964  1.02465083  1
  Li  Li80  1  0.81213964  0.65182928  0.77465083  1
  Li  Li81  1  0.68786036  0.34817072  1.27465083  1
  Li  Li82  1  0.59817072  1.56213964  1.02465083  1
  Li  Li83  1  0.90182928  0.43786036  1.52465083  1
  Li  Li84  1  0.68786036  0.65182928  0.22534917  1
  Li  Li85  1  0.81213964  0.34817072  0.72534917  1
  Li  Li86  1  0.90182928  1.56213964  0.97534917  1
  Li  Li87  1  0.59817072  0.43786036  0.47534917  1
  Li  Li88  1  0.18786036  0.34817072  0.22534917  1
  Li  Li89  1  1.31213964  0.65182928  0.72534917  1
  Li  Li90  1  1.40182928  0.43786036  0.97534917  1
  Li  Li91  1  1.09817072  1.56213964  0.47534917  1
  Li  Li92  1  1.31213964  0.34817072  0.77465083  1
  Li  Li93  1  0.18786036  0.65182928  1.27465083  1
  Li  Li94  1  1.09817072  0.43786036  1.02465083  1
  Li  Li95  1  1.40182928  1.56213964  1.52465083  1
  Li  Li96  1  0.37835076  0.07513375  0.52775773  1
  Li  Li97  1  0.12164924  0.92486625  0.02775773  1
  Li  Li98  1  0.17486625  0.12835076  0.77775773  1
  Li  Li99  1  0.32513375  0.87164924  0.27775773  1
  Li  Li100  1  0.12164924  0.07513375  0.47224227  1
  Li  Li101  1  0.37835076  0.92486625  0.97224227  1
  Li  Li102  1  0.32513375  0.12835076  0.22224227  1
  Li  Li103  1  0.17486625  0.87164924  0.72224227  1
  Li  Li104  1  0.62164924  0.92486625  0.47224227  1
  Li  Li105  1  0.87835076  0.07513375  0.97224227  1
  Li  Li106  1  0.82513375  0.87164924  0.22224227  1
  Li  Li107  1  0.67486625  0.12835076  0.72224227  1
  Li  Li108  1  0.87835076  0.92486625  0.52775773  1
  Li  Li109  1  0.62164924  0.07513375  0.02775773  1
  Li  Li110  1  0.67486625  0.87164924  0.77775773  1
  Li  Li111  1  0.82513375  0.12835076  0.27775773  1
  Li  Li112  1  0.87835076  0.57513375  0.02775773  1
  Li  Li113  1  0.62164924  0.42486625  0.52775773  1
  Li  Li114  1  0.67486625  0.62835076  0.27775773  1
  Li  Li115  1  0.82513375  0.37164924  0.77775773  1
  Li  Li116  1  0.62164924  0.57513375  0.97224227  1
  Li  Li117  1  0.87835076  0.42486625  0.47224227  1
  Li  Li118  1  0.82513375  0.62835076  0.72224227  1
  Li  Li119  1  0.67486625  0.37164924  0.22224227  1
  Li  Li120  1  0.12164924  0.42486625  0.97224227  1
  Li  Li121  1  0.37835076  0.57513375  0.47224227  1
  Li  Li122  1  0.32513375  0.37164924  0.72224227  1
  Li  Li123  1  0.17486625  0.62835076  0.22224227  1
  Li  Li124  1  0.37835076  0.42486625  0.02775773  1
  Li  Li125  1  0.12164924  0.57513375  0.52775773  1
  Li  Li126  1  0.17486625  0.37164924  0.27775773  1
  Li  Li127  1  0.32513375  0.62835076  0.77775773  1
