# generated using pymatgen
data_LiF
_symmetry_space_group_name_H-M   'P 1'
_cell_length_a   14.53287887
_cell_length_b   14.53287887
_cell_length_c   4.04747840
_cell_angle_alpha   90.00000000
_cell_angle_beta   90.00000000
_cell_angle_gamma   120.00000000
_symmetry_Int_Tables_number   1
_chemical_formula_structural   LiF
_chemical_formula_sum   'Li32 F32'
_cell_volume   740.31828987
_cell_formula_units_Z   32
loop_
 _symmetry_equiv_pos_site_id
 _symmetry_equiv_pos_as_xyz
  1  'x, y, z'
loop_
 _atom_site_type_symbol
 _atom_site_label
 _atom_site_symmetry_multiplicity
 _atom_site_fract_x
 _atom_site_fract_y
 _atom_site_fract_z
 _atom_site_occupancy
  F  F0  1  0.11587705  0.92454615  0.08158521  1
  F  F1  1  0.07545385  0.19133090  0.08158521  1
  F  F2  1  0.80866910  0.88412295  0.08158521  1
  F  F3  1  0.07545385  0.88412295  0.91841479  1
  F  F4  1  0.80866910  0.92454615  0.91841479  1
  F  F5  1  0.11587705  0.19133090  0.91841479  1
  F  F6  1  0.92071363  0.14587823  0.93680553  1
  F  F7  1  0.85412177  0.77483540  0.93680553  1
  F  F8  1  0.22516460  0.07928637  0.93680553  1
  F  F9  1  0.85412177  0.07928637  0.06319447  1
  F  F10  1  0.22516460  0.14587823  0.06319447  1
  F  F11  1  0.92071363  0.77483540  0.06319447  1
  F  F12  1  0.37594963  0.55397050  0.88426457  1
  F  F13  1  0.44602950  0.82197913  0.88426457  1
  F  F14  1  0.17802087  0.62405037  0.88426457  1
  F  F15  1  0.44602950  0.62405037  0.11573543  1
  F  F16  1  0.17802087  0.55397050  0.11573543  1
  F  F17  1  0.37594963  0.82197913  0.11573543  1
  F  F18  1  0.78601246  0.21398754  0.00000000  1
  F  F19  1  0.78601246  0.57202492  0.00000000  1
  F  F20  1  0.42797508  0.21398754  0.00000000  1
  F  F21  1  0.29336283  0.21633915  0.36327525  1
  F  F22  1  0.78366085  0.07702369  0.36327525  1
  F  F23  1  0.92297631  0.70663717  0.36327525  1
  F  F24  1  0.78366085  0.70663717  0.63672475  1
  F  F25  1  0.92297631  0.21633915  0.63672475  1
  F  F26  1  0.29336283  0.07702369  0.63672475  1
  F  F27  1  0.54714248  0.45285752  0.00000000  1
  F  F28  1  0.54714248  0.09428496  0.00000000  1
  F  F29  1  0.90571504  0.45285752  0.00000000  1
  F  F30  1  0.00000000  0.00000000  0.81681488  1
  F  F31  1  0.00000000  0.00000000  0.18318512  1
  Li  Li32  1  0.66666667  0.33333333  0.17649066  1
  Li  Li33  1  0.66666667  0.33333333  0.82350934  1
  Li  Li34  1  0.33333333  0.66666667  0.78868508  1
  Li  Li35  1  0.33333333  0.66666667  0.21131492  1
  Li  Li36  1  0.09264471  0.09614281  0.24259052  1
  Li  Li37  1  -0.09614281  -0.00349810  0.24259052  1
  Li  Li38  1  0.00349810  -0.09264471  0.24259052  1
  Li  Li39  1  -0.09614281  -0.09264471  -0.24259052  1
  Li  Li40  1  0.00349810  0.09614281  -0.24259052  1
  Li  Li41  1  0.09264471  -0.00349810  -0.24259052  1
  Li  Li42  1  0.80726716  0.03636176  0.63415323  1
  Li  Li43  1  0.96363824  0.77090540  0.63415323  1
  Li  Li44  1  0.22909460  0.19273284  0.63415323  1
  Li  Li45  1  0.96363824  0.19273284  0.36584677  1
  Li  Li46  1  0.22909460  0.03636176  0.36584677  1
  Li  Li47  1  0.80726716  0.77090540  0.36584677  1
  Li  Li48  1  0.28734844  0.71265156  -0.00000000  1
  Li  Li49  1  0.28734844  0.57469688  0.00000000  1
  Li  Li50  1  0.42530312  0.71265156  0.00000000  1
  Li  Li51  1  0.71798534  0.28201466  0.00000000  1
  Li  Li52  1  0.71798534  0.43597069  0.00000000  1
  Li  Li53  1  0.56402931  0.28201466  0.00000000  1
  Li  Li54  1  0.31113546  0.28864570  0.01024614  1
  Li  Li55  1  0.71135430  0.02248976  0.01024614  1
  Li  Li56  1  0.97751024  0.68886454  0.01024614  1
  Li  Li57  1  0.71135430  0.68886454  0.98975386  1
  Li  Li58  1  0.97751024  0.28864570  0.98975386  1
  Li  Li59  1  0.31113546  0.02248976  0.98975386  1
  Li  Li60  1  0.00000000  0.00000000  0.50000000  1
  Li  Li61  1  0.47978247  0.52021753  0.50000000  1
  Li  Li62  1  0.47978247  0.95956494  0.50000000  1
  Li  Li63  1  0.04043506  0.52021753  0.50000000  1
