# generated using pymatgen
data_LiY2Cu3PSe
_symmetry_space_group_name_H-M   'P 1'
_cell_length_a   4.35162613
_cell_length_b   4.59522200
_cell_length_c   5.98142376
_cell_angle_alpha   95.05513560
_cell_angle_beta   97.64423397
_cell_angle_gamma   105.02757300
_symmetry_Int_Tables_number   1
_chemical_formula_structural   LiY2Cu3PSe
_chemical_formula_sum   'Li1 Y2 Cu3 P1 Se1'
_cell_volume   113.54855820
_cell_formula_units_Z   1
loop_
 _symmetry_equiv_pos_site_id
 _symmetry_equiv_pos_as_xyz
  1  'x, y, z'
loop_
 _atom_site_type_symbol
 _atom_site_label
 _atom_site_symmetry_multiplicity
 _atom_site_fract_x
 _atom_site_fract_y
 _atom_site_fract_z
 _atom_site_occupancy
  Se  Se0  1  0.00000000  0.00000000  0.00000000  1
  Cu  Cu1  1  0.50000000  0.50000000  0.50000000  1
  Cu  Cu2  1  0.25000000  0.25000000  0.25000000  1
  Cu  Cu3  1  0.75000000  0.25000000  0.00000000  1
  Y  Y4  1  0.25000000  0.75000000  0.50000000  1
  Y  Y5  1  0.20576360  0.33958595  0.21928771  1
  P  P6  1  0.46107673  0.46518637  0.51237893  1
  Li  Li7  1  0.63437489  0.30301267  0.80333372  1
