# generated using pymatgen
data_Li2Cu3As4P2Se
_symmetry_space_group_name_H-M   'P 1'
_cell_length_a   4.89866765
_cell_length_b   5.11867153
_cell_length_c   6.48846894
_cell_angle_alpha   93.96434446
_cell_angle_beta   97.65556649
_cell_angle_gamma   104.26773237
_symmetry_Int_Tables_number   1
_chemical_formula_structural   Li2Cu3As4P2Se
_chemical_formula_sum   'Li2 Cu3 As4 P2 Se1'
_cell_volume   155.38932116
_cell_formula_units_Z   1
loop_
 _symmetry_equiv_pos_site_id
 _symmetry_equiv_pos_as_xyz
  1  'x, y, z'
loop_
 _atom_site_type_symbol
 _atom_site_label
 _atom_site_symmetry_multiplicity
 _atom_site_fract_x
 _atom_site_fract_y
 _atom_site_fract_z
 _atom_site_occupancy
  Se  Se0  1  0.00000000  0.00000000  0.00000000  1
  Cu  Cu1  1  0.50000000  0.50000000  0.50000000  1
  Cu  Cu2  1  0.25000000  0.25000000  0.25000000  1
  Cu  Cu3  1  0.75000000  0.25000000  0.00000000  1
  P  P4  1  0.25000000  0.75000000  0.50000000  1
  P  P5  1  0.04651856  0.39406142  0.28241577  1
  As  As6  1  0.70394804  0.65220283  0.83391156  1
  As  As7  1  0.96178738  0.59178589  0.87073482  1
  As  As8  1  0.56096256  0.54311841  0.21205263  1
  As  As9  1  0.64425719  0.89657605  0.59737258  1
  Li  Li10  1  0.90863623  0.85057382  0.37893523  1
  Li  Li11  1  0.21891128  0.93783035  0.34236613  1
