# generated using pymatgen
data_LiF
_symmetry_space_group_name_H-M   'P 1'
_cell_length_a   12.66572409
_cell_length_b   9.49128284
_cell_length_c   5.39273035
_cell_angle_alpha   90.00000000
_cell_angle_beta   90.00000000
_cell_angle_gamma   90.00000000
_symmetry_Int_Tables_number   1
_chemical_formula_structural   LiF
_chemical_formula_sum   'Li24 F24'
_cell_volume   648.28152296
_cell_formula_units_Z   24
loop_
 _symmetry_equiv_pos_site_id
 _symmetry_equiv_pos_as_xyz
  1  'x, y, z'
loop_
 _atom_site_type_symbol
 _atom_site_label
 _atom_site_symmetry_multiplicity
 _atom_site_fract_x
 _atom_site_fract_y
 _atom_site_fract_z
 _atom_site_occupancy
  F  F0  1  0.87733760  0.60258863  0.81914058  1
  F  F1  1  -0.87733760  -0.60258863  0.81914058  1
  F  F2  1  -0.37733760  1.10258863  -0.81914058  1
  F  F3  1  1.37733760  -0.10258863  -0.81914058  1
  F  F4  1  -0.87733760  -0.60258863  -0.81914058  1
  F  F5  1  0.87733760  0.60258863  -0.81914058  1
  F  F6  1  1.37733760  -0.10258863  0.81914058  1
  F  F7  1  -0.37733760  1.10258863  0.81914058  1
  F  F8  1  0.00000000  0.50000000  0.11245772  1
  F  F9  1  0.50000000  0.00000000  0.88754228  1
  F  F10  1  0.00000000  0.50000000  0.88754228  1
  F  F11  1  0.50000000  0.00000000  0.11245772  1
  F  F12  1  0.88276535  0.21368308  0.62953916  1
  F  F13  1  0.11723465  0.78631692  0.62953916  1
  F  F14  1  0.61723465  0.71368308  0.37046084  1
  F  F15  1  0.38276535  0.28631692  0.37046084  1
  F  F16  1  0.11723465  0.78631692  0.37046084  1
  F  F17  1  0.88276535  0.21368308  0.37046084  1
  F  F18  1  0.38276535  0.28631692  0.62953916  1
  F  F19  1  0.61723465  0.71368308  0.62953916  1
  F  F20  1  0.00000000  0.00000000  0.07408216  1
  F  F21  1  0.50000000  0.50000000  0.92591784  1
  F  F22  1  0.00000000  0.00000000  0.92591784  1
  F  F23  1  0.50000000  0.50000000  0.07408216  1
  Li  Li24  1  0.00000000  0.00000000  0.67825962  1
  Li  Li25  1  0.50000000  0.50000000  0.32174038  1
  Li  Li26  1  0.00000000  0.00000000  0.32174038  1
  Li  Li27  1  0.50000000  0.50000000  0.67825962  1
  Li  Li28  1  0.68724962  0.17938616  0.00000000  1
  Li  Li29  1  0.31275038  0.82061384  -0.00000000  1
  Li  Li30  1  0.81275038  0.67938616  -0.00000000  1
  Li  Li31  1  0.18724962  0.32061384  -0.00000000  1
  Li  Li32  1  0.78778160  0.34057013  0.70029017  1
  Li  Li33  1  0.21221840  0.65942987  0.70029017  1
  Li  Li34  1  0.71221840  0.84057013  0.29970983  1
  Li  Li35  1  0.28778160  0.15942987  0.29970983  1
  Li  Li36  1  0.21221840  0.65942987  0.29970983  1
  Li  Li37  1  0.78778160  0.34057013  0.29970983  1
  Li  Li38  1  0.28778160  0.15942987  0.70029017  1
  Li  Li39  1  0.71221840  0.84057013  0.70029017  1
  Li  Li40  1  0.68256866  0.60173409  0.82085702  1
  Li  Li41  1  0.31743134  0.39826591  0.82085702  1
  Li  Li42  1  0.81743134  0.10173409  0.17914298  1
  Li  Li43  1  0.18256866  0.89826591  0.17914298  1
  Li  Li44  1  0.31743134  0.39826591  0.17914298  1
  Li  Li45  1  0.68256866  0.60173409  0.17914298  1
  Li  Li46  1  0.18256866  0.89826591  0.82085702  1
  Li  Li47  1  0.81743134  0.10173409  0.82085702  1
