# generated using pymatgen
data_LiF
_symmetry_space_group_name_H-M   'P 1'
_cell_length_a   7.55786972
_cell_length_b   3.37897751
_cell_length_c   5.49145572
_cell_angle_alpha   90.00000000
_cell_angle_beta   90.00000000
_cell_angle_gamma   90.00000000
_symmetry_Int_Tables_number   1
_chemical_formula_structural   LiF
_chemical_formula_sum   'Li8 F8'
_cell_volume   140.24009232
_cell_formula_units_Z   8
loop_
 _symmetry_equiv_pos_site_id
 _symmetry_equiv_pos_as_xyz
  1  'x, y, z'
loop_
 _atom_site_type_symbol
 _atom_site_label
 _atom_site_symmetry_multiplicity
 _atom_site_fract_x
 _atom_site_fract_y
 _atom_site_fract_z
 _atom_site_occupancy
  F  F0  1  0.07325205  0.55262588  -0.00000000  1
  F  F1  1  -0.07325205  -0.55262588  0.00000000  1
  F  F2  1  0.42674795  1.05262588  0.50000000  1
  F  F3  1  0.57325205  -0.05262588  0.50000000  1
  F  F4  1  0.00000000  0.50000000  0.50000000  1
  F  F5  1  0.50000000  0.00000000  0.00000000  1
  F  F6  1  0.00000000  0.50000000  0.00000000  1
  F  F7  1  0.50000000  0.00000000  0.50000000  1
  Li  Li8  1  0.79881257  0.91999455  -0.00000000  1
  Li  Li9  1  0.20118743  0.08000545  -0.00000000  1
  Li  Li10  1  0.70118743  0.41999455  0.50000000  1
  Li  Li11  1  0.29881257  0.58000545  0.50000000  1
  Li  Li12  1  0.67998536  0.63083253  0.00000000  1
  Li  Li13  1  0.32001464  0.36916747  -0.00000000  1
  Li  Li14  1  0.82001464  0.13083253  0.50000000  1
  Li  Li15  1  0.17998536  0.86916747  0.50000000  1
