# generated using pymatgen
data_LiF
_symmetry_space_group_name_H-M   'P 1'
_cell_length_a   3.96222958
_cell_length_b   13.06044715
_cell_length_c   12.63731340
_cell_angle_alpha   90.00000000
_cell_angle_beta   90.00000000
_cell_angle_gamma   90.00000000
_symmetry_Int_Tables_number   1
_chemical_formula_structural   LiF
_chemical_formula_sum   'Li24 F24'
_cell_volume   653.96188606
_cell_formula_units_Z   24
loop_
 _symmetry_equiv_pos_site_id
 _symmetry_equiv_pos_as_xyz
  1  'x, y, z'
loop_
 _atom_site_type_symbol
 _atom_site_label
 _atom_site_symmetry_multiplicity
 _atom_site_fract_x
 _atom_site_fract_y
 _atom_site_fract_z
 _atom_site_occupancy
  F  F0  1  0.66868199  0.03588685  0.16741564  1
  F  F1  1  -0.66868199  -0.03588685  0.16741564  1
  F  F2  1  -0.16868199  0.53588685  -0.16741564  1
  F  F3  1  1.16868199  0.46411315  -0.16741564  1
  F  F4  1  -0.66868199  -0.03588685  -0.16741564  1
  F  F5  1  0.66868199  0.03588685  -0.16741564  1
  F  F6  1  1.16868199  0.46411315  0.16741564  1
  F  F7  1  -0.16868199  0.53588685  0.16741564  1
  F  F8  1  0.49344212  0.62090771  0.50000000  1
  F  F9  1  0.50655788  0.37909229  0.50000000  1
  F  F10  1  0.00655788  0.12090771  0.50000000  1
  F  F11  1  0.99344212  0.87909229  0.50000000  1
  F  F12  1  0.00000000  0.50000000  0.00000000  1
  F  F13  1  0.50000000  -0.00000000  0.00000000  1
  F  F14  1  0.07464429  0.04100087  0.44407786  1
  F  F15  1  0.92535571  0.95899913  0.44407786  1
  F  F16  1  0.42535571  0.54100087  0.55592214  1
  F  F17  1  0.57464429  0.45899913  0.55592214  1
  F  F18  1  0.92535571  0.95899913  0.55592214  1
  F  F19  1  0.07464429  0.04100087  0.55592214  1
  F  F20  1  0.57464429  0.45899913  0.44407786  1
  F  F21  1  0.42535571  0.54100087  0.44407786  1
  F  F22  1  0.00000000  0.50000000  0.50000000  1
  F  F23  1  0.50000000  -0.00000000  0.50000000  1
  Li  Li24  1  0.52303729  0.78111621  0.89714864  1
  Li  Li25  1  0.47696271  0.21888379  0.89714864  1
  Li  Li26  1  0.97696271  0.28111621  0.10285136  1
  Li  Li27  1  0.02303729  0.71888379  0.10285136  1
  Li  Li28  1  0.47696271  0.21888379  0.10285136  1
  Li  Li29  1  0.52303729  0.78111621  0.10285136  1
  Li  Li30  1  0.02303729  0.71888379  0.89714864  1
  Li  Li31  1  0.97696271  0.28111621  0.89714864  1
  Li  Li32  1  0.82111285  0.35741111  0.50000000  1
  Li  Li33  1  0.17888715  0.64258889  0.50000000  1
  Li  Li34  1  0.67888715  0.85741111  0.50000000  1
  Li  Li35  1  0.32111285  0.14258889  0.50000000  1
  Li  Li36  1  0.11293980  0.15465869  0.94631339  1
  Li  Li37  1  0.88706020  0.84534131  0.94631339  1
  Li  Li38  1  0.38706020  0.65465869  0.05368661  1
  Li  Li39  1  0.61293980  0.34534131  0.05368661  1
  Li  Li40  1  0.88706020  0.84534131  0.05368661  1
  Li  Li41  1  0.11293980  0.15465869  0.05368661  1
  Li  Li42  1  0.61293980  0.34534131  0.94631339  1
  Li  Li43  1  0.38706020  0.65465869  0.94631339  1
  Li  Li44  1  0.20307291  0.73703270  -0.00000000  1
  Li  Li45  1  0.79692709  0.26296730  0.00000000  1
  Li  Li46  1  0.29692709  0.23703270  0.00000000  1
  Li  Li47  1  0.70307291  0.76296730  -0.00000000  1
