# generated using pymatgen
data_Li2P2Se
_symmetry_space_group_name_H-M   'P 1'
_cell_length_a   4.56071741
_cell_length_b   4.78774168
_cell_length_c   6.62617115
_cell_angle_alpha   95.18096749
_cell_angle_beta   99.99021583
_cell_angle_gamma   108.78234963
_symmetry_Int_Tables_number   1
_chemical_formula_structural   Li2P2Se
_chemical_formula_sum   'Li2 P2 Se1'
_cell_volume   133.23649995
_cell_formula_units_Z   1
loop_
 _symmetry_equiv_pos_site_id
 _symmetry_equiv_pos_as_xyz
  1  'x, y, z'
loop_
 _atom_site_type_symbol
 _atom_site_label
 _atom_site_symmetry_multiplicity
 _atom_site_fract_x
 _atom_site_fract_y
 _atom_site_fract_z
 _atom_site_occupancy
  P  P0  1  0.12500000  0.00000000  0.25000000  1
  P  P1  1  0.00000000  0.00000000  0.00000000  1
  Se  Se2  1  0.37500000  0.00000000  0.25000000  1
  Li  Li3  1  0.25000000  0.25000000  0.25000000  1
  Li  Li4  1  0.00000000  0.25000000  0.12500000  1
