# generated using pymatgen
data_LiF
_symmetry_space_group_name_H-M   'P 1'
_cell_length_a   14.22405991
_cell_length_b   14.22405991
_cell_length_c   6.27893433
_cell_angle_alpha   90.00000000
_cell_angle_beta   90.00000000
_cell_angle_gamma   90.00000000
_symmetry_Int_Tables_number   1
_chemical_formula_structural   LiF
_chemical_formula_sum   'Li36 F36'
_cell_volume   1270.37835762
_cell_formula_units_Z   36
loop_
 _symmetry_equiv_pos_site_id
 _symmetry_equiv_pos_as_xyz
  1  'x, y, z'
loop_
 _atom_site_type_symbol
 _atom_site_label
 _atom_site_symmetry_multiplicity
 _atom_site_fract_x
 _atom_site_fract_y
 _atom_site_fract_z
 _atom_site_occupancy
  F  F0  1  0.00000000  0.75000000  0.12500000  1
  F  F1  1  0.50000000  0.75000000  0.37500000  1
  F  F2  1  0.50000000  0.25000000  0.62500000  1
  F  F3  1  0.00000000  0.25000000  0.87500000  1
  F  F4  1  0.00000000  0.00000000  0.00000000  1
  F  F5  1  0.50000000  0.00000000  0.50000000  1
  F  F6  1  0.25000000  0.75000000  0.25000000  1
  F  F7  1  0.25000000  0.25000000  0.75000000  1
  F  F8  1  0.50000000  0.50000000  0.50000000  1
  F  F9  1  0.00000000  0.50000000  0.00000000  1
  F  F10  1  0.75000000  0.25000000  0.75000000  1
  F  F11  1  0.75000000  0.75000000  0.25000000  1
  F  F12  1  0.28731817  0.53731817  0.87500000  1
  F  F13  1  0.21268183  0.46268183  0.37500000  1
  F  F14  1  -0.28731817  1.03731817  0.12500000  1
  F  F15  1  0.78731817  -0.03731817  0.62500000  1
  F  F16  1  -0.28731817  0.46268183  0.12500000  1
  F  F17  1  0.78731817  0.53731817  0.62500000  1
  F  F18  1  0.28731817  -0.03731817  0.87500000  1
  F  F19  1  0.21268183  1.03731817  0.37500000  1
  F  F20  1  0.78731817  1.03731817  1.37500000  1
  F  F21  1  0.71268183  0.96268183  0.87500000  1
  F  F22  1  0.21268183  1.53731817  0.62500000  1
  F  F23  1  1.28731817  0.46268183  1.12500000  1
  F  F24  1  0.21268183  0.96268183  0.62500000  1
  F  F25  1  1.28731817  1.03731817  1.12500000  1
  F  F26  1  0.78731817  0.46268183  1.37500000  1
  F  F27  1  0.71268183  1.53731817  0.87500000  1
  F  F28  1  0.00000000  0.00000000  0.50000000  1
  F  F29  1  0.50000000  0.00000000  0.00000000  1
  F  F30  1  0.25000000  0.75000000  0.75000000  1
  F  F31  1  0.25000000  0.25000000  0.25000000  1
  F  F32  1  0.50000000  0.50000000  0.00000000  1
  F  F33  1  0.00000000  0.50000000  0.50000000  1
  F  F34  1  0.75000000  0.25000000  0.25000000  1
  F  F35  1  0.75000000  0.75000000  0.75000000  1
  Li  Li36  1  0.18754379  0.43754379  0.87500000  1
  Li  Li37  1  0.31245621  0.56245621  0.37500000  1
  Li  Li38  1  0.81245621  0.93754379  0.12500000  1
  Li  Li39  1  0.68754379  0.06245621  0.62500000  1
  Li  Li40  1  0.81245621  0.56245621  0.12500000  1
  Li  Li41  1  0.68754379  0.43754379  0.62500000  1
  Li  Li42  1  0.18754379  0.06245621  0.87500000  1
  Li  Li43  1  0.31245621  0.93754379  0.37500000  1
  Li  Li44  1  0.68754379  0.93754379  0.37500000  1
  Li  Li45  1  0.81245621  0.06245621  0.87500000  1
  Li  Li46  1  0.31245621  0.43754379  0.62500000  1
  Li  Li47  1  0.18754379  0.56245621  0.12500000  1
  Li  Li48  1  0.31245621  0.06245621  0.62500000  1
  Li  Li49  1  0.18754379  0.93754379  0.12500000  1
  Li  Li50  1  0.68754379  0.56245621  0.37500000  1
  Li  Li51  1  0.81245621  0.43754379  0.87500000  1
  Li  Li52  1  0.33685964  -0.00000000  -0.00000000  1
  Li  Li53  1  0.16314036  0.00000000  0.50000000  1
  Li  Li54  1  0.25000000  0.08685964  0.25000000  1
  Li  Li55  1  0.25000000  0.91314036  0.75000000  1
  Li  Li56  1  0.66314036  0.00000000  -0.00000000  1
  Li  Li57  1  0.83685964  0.00000000  0.50000000  1
  Li  Li58  1  0.75000000  0.91314036  0.75000000  1
  Li  Li59  1  0.75000000  0.08685964  0.25000000  1
  Li  Li60  1  0.83685964  0.50000000  0.50000000  1
  Li  Li61  1  0.66314036  0.50000000  -0.00000000  1
  Li  Li62  1  0.75000000  0.58685964  0.75000000  1
  Li  Li63  1  0.75000000  0.41314036  0.25000000  1
  Li  Li64  1  0.16314036  0.50000000  0.50000000  1
  Li  Li65  1  0.33685964  0.50000000  0.00000000  1
  Li  Li66  1  0.25000000  0.41314036  0.25000000  1
  Li  Li67  1  0.25000000  0.58685964  0.75000000  1
  Li  Li68  1  0.00000000  0.25000000  0.37500000  1
  Li  Li69  1  0.00000000  0.75000000  0.62500000  1
  Li  Li70  1  0.50000000  0.75000000  0.87500000  1
  Li  Li71  1  0.50000000  0.25000000  0.12500000  1
