# generated using pymatgen
data_Li3Ca2Se2F3
_symmetry_space_group_name_H-M   'P 1'
_cell_length_a   11.66425186
_cell_length_b   11.66425186
_cell_length_c   3.50274141
_cell_angle_alpha   90.00000000
_cell_angle_beta   90.00000000
_cell_angle_gamma   120.00000000
_symmetry_Int_Tables_number   1
_chemical_formula_structural   Li3Ca2Se2F3
_chemical_formula_sum   'Li6 Ca4 Se4 F6'
_cell_volume   412.71712122
_cell_formula_units_Z   2
loop_
 _symmetry_equiv_pos_site_id
 _symmetry_equiv_pos_as_xyz
  1  'x, y, z'
loop_
 _atom_site_type_symbol
 _atom_site_label
 _atom_site_symmetry_multiplicity
 _atom_site_fract_x
 _atom_site_fract_y
 _atom_site_fract_z
 _atom_site_occupancy
  Ca  Ca0  1  0.72929226  0.27070774  0.50000000  1
  Ca  Ca1  1  0.72929226  0.45858452  0.50000000  1
  Ca  Ca2  1  0.54141548  0.27070774  0.50000000  1
  Ca  Ca3  1  0.33333333  0.66666667  0.50000000  1
  F  F4  1  0.29204085  0.17508198  0.26141468  1
  F  F5  1  -0.17508198  0.11695887  0.26141468  1
  F  F6  1  -0.11695887  -0.29204085  0.26141468  1
  F  F7  1  -0.17508198  -0.29204085  -0.26141468  1
  F  F8  1  -0.11695887  0.17508198  -0.26141468  1
  F  F9  1  0.29204085  0.11695887  -0.26141468  1
  Li  Li10  1  0.26571482  0.73428518  0.00000000  1
  Li  Li11  1  0.26571482  0.53142965  0.00000000  1
  Li  Li12  1  0.46857035  0.73428518  -0.00000000  1
  Li  Li13  1  0.66666667  0.33333333  -0.00000000  1
  Li  Li14  1  0.00000000  0.00000000  0.00000000  1
  Li  Li15  1  0.00000000  0.00000000  0.50000000  1
  Se  Se16  1  0.33333333  0.66666667  -0.00000000  1
  Se  Se17  1  0.16938976  0.83061024  -0.00000000  1
  Se  Se18  1  0.16938976  0.33877953  0.00000000  1
  Se  Se19  1  0.66122047  0.83061024  0.00000000  1
