# generated using pymatgen
data_Li2YTiF
_symmetry_space_group_name_H-M   'P 1'
_cell_length_a   3.27641342
_cell_length_b   3.13131197
_cell_length_c   5.86961403
_cell_angle_alpha   102.84294706
_cell_angle_beta   109.53532409
_cell_angle_gamma   111.75661158
_symmetry_Int_Tables_number   1
_chemical_formula_structural   Li2YTiF
_chemical_formula_sum   'Li2 Y1 Ti1 F1'
_cell_volume   48.41121589
_cell_formula_units_Z   1
loop_
 _symmetry_equiv_pos_site_id
 _symmetry_equiv_pos_as_xyz
  1  'x, y, z'
loop_
 _atom_site_type_symbol
 _atom_site_label
 _atom_site_symmetry_multiplicity
 _atom_site_fract_x
 _atom_site_fract_y
 _atom_site_fract_z
 _atom_site_occupancy
  F  F0  1  0.00000000  0.00000000  0.00000000  1
  Ti  Ti1  1  0.33300000  0.66700000  0.25000000  1
  Y  Y2  1  0.66700000  0.33300000  0.50000000  1
  Li  Li3  1  0.00000000  0.00000000  0.75000000  1
  Li  Li4  1  0.72928442  0.09007712  0.09675531  1
