# generated using pymatgen
data_LiF
_symmetry_space_group_name_H-M   'P 1'
_cell_length_a   10.82381675
_cell_length_b   10.82381675
_cell_length_c   11.87498638
_cell_angle_alpha   90.00000000
_cell_angle_beta   90.00000000
_cell_angle_gamma   120.00000000
_symmetry_Int_Tables_number   1
_chemical_formula_structural   LiF
_chemical_formula_sum   'Li32 F32'
_cell_volume   1204.82678558
_cell_formula_units_Z   32
loop_
 _symmetry_equiv_pos_site_id
 _symmetry_equiv_pos_as_xyz
  1  'x, y, z'
loop_
 _atom_site_type_symbol
 _atom_site_label
 _atom_site_symmetry_multiplicity
 _atom_site_fract_x
 _atom_site_fract_y
 _atom_site_fract_z
 _atom_site_occupancy
  F  F0  1  0.99850612  0.89289655  0.91377734  1
  F  F1  1  0.10710345  0.10560956  0.91377734  1
  F  F2  1  0.89439044  0.00149388  0.91377734  1
  F  F3  1  0.10710345  0.00149388  0.08622266  1
  F  F4  1  0.89439044  0.89289655  0.08622266  1
  F  F5  1  0.99850612  0.10560956  0.08622266  1
  F  F6  1  0.50201918  0.74389718  0.75635936  1
  F  F7  1  0.25610282  0.75812200  0.75635936  1
  F  F8  1  0.24187800  0.49798082  0.75635936  1
  F  F9  1  0.25610282  0.49798082  0.24364064  1
  F  F10  1  0.24187800  0.74389718  0.24364064  1
  F  F11  1  0.50201918  0.75812200  0.24364064  1
  F  F12  1  0.74437785  0.39313912  0.36589457  1
  F  F13  1  0.60686088  0.35123873  0.36589457  1
  F  F14  1  0.64876127  0.25562215  0.36589457  1
  F  F15  1  0.60686088  0.25562215  0.63410543  1
  F  F16  1  0.64876127  0.39313912  0.63410543  1
  F  F17  1  0.74437785  0.35123873  0.63410543  1
  F  F18  1  0.26704820  0.88529024  0.38906051  1
  F  F19  1  0.11470976  0.38175796  0.38906051  1
  F  F20  1  0.61824204  0.73295180  0.38906051  1
  F  F21  1  0.11470976  0.73295180  0.61093949  1
  F  F22  1  0.61824204  0.88529024  0.61093949  1
  F  F23  1  0.26704820  0.38175796  0.61093949  1
  F  F24  1  0.78239792  0.27833076  0.60046132  1
  F  F25  1  0.72166924  0.50406716  0.60046132  1
  F  F26  1  0.49593284  0.21760208  0.60046132  1
  F  F27  1  0.72166924  0.21760208  0.39953868  1
  F  F28  1  0.49593284  0.27833076  0.39953868  1
  F  F29  1  0.78239792  0.50406716  0.39953868  1
  F  F30  1  0.33333333  0.66666667  0.71108161  1
  F  F31  1  0.33333333  0.66666667  0.28891839  1
  Li  Li32  1  0.89519441  0.92364622  0.58581625  1
  Li  Li33  1  -0.92364622  -0.02845180  0.58581625  1
  Li  Li34  1  0.02845180  -0.89519441  0.58581625  1
  Li  Li35  1  -0.92364622  -0.89519441  -0.58581625  1
  Li  Li36  1  0.02845180  0.92364622  -0.58581625  1
  Li  Li37  1  0.89519441  -0.02845180  -0.58581625  1
  Li  Li38  1  0.00000000  0.00000000  0.00000000  1
  Li  Li39  1  0.33333333  0.66666667  0.50000000  1
  Li  Li40  1  0.49576574  0.71577605  0.16763392  1
  Li  Li41  1  0.28422395  0.77998969  0.16763392  1
  Li  Li42  1  0.22001031  0.50423426  0.16763392  1
  Li  Li43  1  0.28422395  0.50423426  0.83236608  1
  Li  Li44  1  0.22001031  0.71577605  0.83236608  1
  Li  Li45  1  0.49576574  0.77998969  0.83236608  1
  Li  Li46  1  0.33333333  0.66666667  0.19416597  1
  Li  Li47  1  0.33333333  0.66666667  0.80583403  1
  Li  Li48  1  0.65375257  0.89566722  0.47503338  1
  Li  Li49  1  0.10433278  0.75808535  0.47503338  1
  Li  Li50  1  0.24191465  0.34624743  0.47503338  1
  Li  Li51  1  0.10433278  0.34624743  0.52496662  1
  Li  Li52  1  0.24191465  0.89566722  0.52496662  1
  Li  Li53  1  0.65375257  0.75808535  0.52496662  1
  Li  Li54  1  0.79507283  0.16912198  0.69328635  1
  Li  Li55  1  0.83087802  0.62595085  0.69328635  1
  Li  Li56  1  0.37404915  0.20492717  0.69328635  1
  Li  Li57  1  0.83087802  0.20492717  0.30671365  1
  Li  Li58  1  0.37404915  0.16912198  0.30671365  1
  Li  Li59  1  0.79507283  0.62595085  0.30671365  1
  Li  Li60  1  0.54205271  0.45794729  0.00000000  1
  Li  Li61  1  0.54205271  0.08410542  0.00000000  1
  Li  Li62  1  0.91589458  0.45794729  0.00000000  1
  Li  Li63  1  0.66666667  0.33333333  0.50000000  1
