# generated using pymatgen
data_LiF
_symmetry_space_group_name_H-M   'P 1'
_cell_length_a   7.90256307
_cell_length_b   8.48002965
_cell_length_c   11.42431949
_cell_angle_alpha   90.00000000
_cell_angle_beta   90.00000000
_cell_angle_gamma   90.00000000
_symmetry_Int_Tables_number   1
_chemical_formula_structural   LiF
_chemical_formula_sum   'Li24 F24'
_cell_volume   765.58899322
_cell_formula_units_Z   24
loop_
 _symmetry_equiv_pos_site_id
 _symmetry_equiv_pos_as_xyz
  1  'x, y, z'
loop_
 _atom_site_type_symbol
 _atom_site_label
 _atom_site_symmetry_multiplicity
 _atom_site_fract_x
 _atom_site_fract_y
 _atom_site_fract_z
 _atom_site_occupancy
  F  F0  1  0.75963116  0.11752009  0.66261885  1
  F  F1  1  0.74036884  0.88247991  0.16261885  1
  F  F2  1  0.24036884  0.61752009  0.33738115  1
  F  F3  1  0.25963116  0.38247991  0.83738115  1
  F  F4  1  0.24036884  0.88247991  0.33738115  1
  F  F5  1  0.25963116  0.11752009  0.83738115  1
  F  F6  1  0.75963116  0.38247991  0.66261885  1
  F  F7  1  0.74036884  0.61752009  0.16261885  1
  F  F8  1  0.59455863  0.54270688  0.60746115  1
  F  F9  1  0.90544137  0.45729312  0.10746115  1
  F  F10  1  0.40544137  0.04270688  0.39253885  1
  F  F11  1  0.09455863  0.95729312  0.89253885  1
  F  F12  1  0.40544137  0.45729312  0.39253885  1
  F  F13  1  0.09455863  0.54270688  0.89253885  1
  F  F14  1  0.59455863  0.95729312  0.60746115  1
  F  F15  1  0.90544137  0.04270688  0.10746115  1
  F  F16  1  0.64784460  0.95907955  0.31421219  1
  F  F17  1  0.85215540  0.04092045  0.81421219  1
  F  F18  1  0.35215540  0.45907955  0.68578781  1
  F  F19  1  0.14784460  0.54092045  0.18578781  1
  F  F20  1  0.35215540  0.04092045  0.68578781  1
  F  F21  1  0.14784460  0.95907955  0.18578781  1
  F  F22  1  0.64784460  0.54092045  0.31421219  1
  F  F23  1  0.85215540  0.45907955  0.81421219  1
  Li  Li24  1  0.00000000  0.00000000  0.00000000  1
  Li  Li25  1  0.50000000  0.00000000  0.50000000  1
  Li  Li26  1  0.00000000  0.50000000  0.00000000  1
  Li  Li27  1  0.50000000  0.50000000  0.50000000  1
  Li  Li28  1  0.17452160  0.34431003  0.21841317  1
  Li  Li29  1  0.32547840  -0.34431003  0.71841317  1
  Li  Li30  1  -0.17452160  0.84431003  -0.21841317  1
  Li  Li31  1  0.67452160  0.15568997  0.28158683  1
  Li  Li32  1  -0.17452160  -0.34431003  -0.21841317  1
  Li  Li33  1  0.67452160  0.34431003  0.28158683  1
  Li  Li34  1  0.17452160  0.15568997  0.21841317  1
  Li  Li35  1  0.32547840  0.84431003  0.71841317  1
  Li  Li36  1  0.00000000  0.00000000  0.50000000  1
  Li  Li37  1  0.50000000  0.00000000  0.00000000  1
  Li  Li38  1  0.00000000  0.50000000  0.50000000  1
  Li  Li39  1  0.50000000  0.50000000  0.00000000  1
  Li  Li40  1  0.60053179  0.34026600  0.10379876  1
  Li  Li41  1  0.89946821  0.65973400  0.60379876  1
  Li  Li42  1  0.39946821  0.84026600  0.89620124  1
  Li  Li43  1  0.10053179  0.15973400  0.39620124  1
  Li  Li44  1  0.39946821  0.65973400  0.89620124  1
  Li  Li45  1  0.10053179  0.34026600  0.39620124  1
  Li  Li46  1  0.60053179  0.15973400  0.10379876  1
  Li  Li47  1  0.89946821  0.84026600  0.60379876  1
