# generated using pymatgen
data_LiF
_symmetry_space_group_name_H-M   'P 1'
_cell_length_a   8.71151866
_cell_length_b   10.94118531
_cell_length_c   8.24007396
_cell_angle_alpha   90.00000000
_cell_angle_beta   90.00000000
_cell_angle_gamma   90.00000000
_symmetry_Int_Tables_number   1
_chemical_formula_structural   LiF
_chemical_formula_sum   'Li24 F24'
_cell_volume   785.39721178
_cell_formula_units_Z   24
loop_
 _symmetry_equiv_pos_site_id
 _symmetry_equiv_pos_as_xyz
  1  'x, y, z'
loop_
 _atom_site_type_symbol
 _atom_site_label
 _atom_site_symmetry_multiplicity
 _atom_site_fract_x
 _atom_site_fract_y
 _atom_site_fract_z
 _atom_site_occupancy
  F  F0  1  0.00764284  0.25000000  0.72858308  1
  F  F1  1  0.49235716  0.75000000  0.22858308  1
  F  F2  1  0.99235716  0.75000000  0.27141692  1
  F  F3  1  0.50764284  0.25000000  0.77141692  1
  F  F4  1  0.00000000  0.00000000  0.50000000  1
  F  F5  1  0.50000000  -0.00000000  0.00000000  1
  F  F6  1  0.00000000  0.50000000  0.50000000  1
  F  F7  1  0.50000000  0.50000000  0.00000000  1
  F  F8  1  0.86392745  0.19891110  0.75800593  1
  F  F9  1  0.63607255  0.80108890  0.25800593  1
  F  F10  1  0.13607255  0.69891110  0.24199407  1
  F  F11  1  0.36392745  0.30108890  0.74199407  1
  F  F12  1  0.13607255  0.80108890  0.24199407  1
  F  F13  1  0.36392745  0.19891110  0.74199407  1
  F  F14  1  0.86392745  0.30108890  0.75800593  1
  F  F15  1  0.63607255  0.69891110  0.25800593  1
  F  F16  1  0.05475472  0.18940397  0.17770751  1
  F  F17  1  0.44524528  0.81059603  0.67770751  1
  F  F18  1  0.94524528  0.68940397  0.82229249  1
  F  F19  1  0.55475472  0.31059603  0.32229249  1
  F  F20  1  0.94524528  0.81059603  0.82229249  1
  F  F21  1  0.55475472  0.18940397  0.32229249  1
  F  F22  1  0.05475472  0.31059603  0.17770751  1
  F  F23  1  0.44524528  0.68940397  0.67770751  1
  Li  Li24  1  0.23287475  0.25000000  0.35066337  1
  Li  Li25  1  0.26712525  0.75000000  0.85066337  1
  Li  Li26  1  0.76712525  0.75000000  0.64933663  1
  Li  Li27  1  0.73287475  0.25000000  0.14933663  1
  Li  Li28  1  0.17316333  0.13462325  0.02270879  1
  Li  Li29  1  0.32683667  -0.13462325  0.52270879  1
  Li  Li30  1  -0.17316333  0.63462325  -0.02270879  1
  Li  Li31  1  0.67316333  0.36537675  0.47729121  1
  Li  Li32  1  -0.17316333  -0.13462325  -0.02270879  1
  Li  Li33  1  0.67316333  0.13462325  0.47729121  1
  Li  Li34  1  0.17316333  0.36537675  0.02270879  1
  Li  Li35  1  0.32683667  0.63462325  0.52270879  1
  Li  Li36  1  0.00000000  0.00000000  0.00000000  1
  Li  Li37  1  0.50000000  -0.00000000  0.50000000  1
  Li  Li38  1  0.00000000  0.50000000  0.00000000  1
  Li  Li39  1  0.50000000  0.50000000  0.50000000  1
  Li  Li40  1  0.58663018  0.31582702  0.58455614  1
  Li  Li41  1  0.91336982  0.68417298  0.08455614  1
  Li  Li42  1  0.41336982  0.81582702  0.41544386  1
  Li  Li43  1  0.08663018  0.18417298  0.91544386  1
  Li  Li44  1  0.41336982  0.68417298  0.41544386  1
  Li  Li45  1  0.08663018  0.31582702  0.91544386  1
  Li  Li46  1  0.58663018  0.18417298  0.58455614  1
  Li  Li47  1  0.91336982  0.81582702  0.08455614  1
