# generated using pymatgen
data_LiF
_symmetry_space_group_name_H-M   'P 1'
_cell_length_a   7.21208754
_cell_length_b   6.50480747
_cell_length_c   7.78484478
_cell_angle_alpha   90.00000000
_cell_angle_beta   90.00000000
_cell_angle_gamma   90.00000000
_symmetry_Int_Tables_number   1
_chemical_formula_structural   LiF
_chemical_formula_sum   'Li16 F16'
_cell_volume   365.21229875
_cell_formula_units_Z   16
loop_
 _symmetry_equiv_pos_site_id
 _symmetry_equiv_pos_as_xyz
  1  'x, y, z'
loop_
 _atom_site_type_symbol
 _atom_site_label
 _atom_site_symmetry_multiplicity
 _atom_site_fract_x
 _atom_site_fract_y
 _atom_site_fract_z
 _atom_site_occupancy
  F  F0  1  0.41657520  0.94591430  0.22754254  1
  F  F1  1  -0.41657520  -0.94591430  0.22754254  1
  F  F2  1  0.08342480  1.44591430  -0.22754254  1
  F  F3  1  0.91657520  -0.44591430  -0.22754254  1
  F  F4  1  -0.41657520  -0.94591430  -0.22754254  1
  F  F5  1  0.41657520  0.94591430  -0.22754254  1
  F  F6  1  0.91657520  -0.44591430  0.22754254  1
  F  F7  1  0.08342480  1.44591430  0.22754254  1
  F  F8  1  0.00000000  0.00000000  0.00000000  1
  F  F9  1  0.50000000  0.50000000  -0.00000000  1
  F  F10  1  0.13808317  0.35329907  0.50000000  1
  F  F11  1  0.86191683  0.64670093  0.50000000  1
  F  F12  1  0.36191683  0.85329907  0.50000000  1
  F  F13  1  0.63808317  0.14670093  0.50000000  1
  F  F14  1  0.00000000  0.50000000  0.00000000  1
  F  F15  1  0.50000000  -0.00000000  -0.00000000  1
  Li  Li16  1  0.77700099  0.98276509  0.83018960  1
  Li  Li17  1  0.22299901  0.01723491  0.83018960  1
  Li  Li18  1  0.72299901  0.48276509  0.16981040  1
  Li  Li19  1  0.27700099  0.51723491  0.16981040  1
  Li  Li20  1  0.22299901  0.01723491  0.16981040  1
  Li  Li21  1  0.77700099  0.98276509  0.16981040  1
  Li  Li22  1  0.27700099  0.51723491  0.83018960  1
  Li  Li23  1  0.72299901  0.48276509  0.83018960  1
  Li  Li24  1  0.01760296  0.73696841  0.91584366  1
  Li  Li25  1  0.98239704  0.26303159  0.91584366  1
  Li  Li26  1  0.48239704  0.23696841  0.08415634  1
  Li  Li27  1  0.51760296  0.76303159  0.08415634  1
  Li  Li28  1  0.98239704  0.26303159  0.08415634  1
  Li  Li29  1  0.01760296  0.73696841  0.08415634  1
  Li  Li30  1  0.51760296  0.76303159  0.91584366  1
  Li  Li31  1  0.48239704  0.23696841  0.91584366  1
