# generated using pymatgen
data_LiF
_symmetry_space_group_name_H-M   'P 1'
_cell_length_a   10.05349450
_cell_length_b   6.39338289
_cell_length_c   8.08354856
_cell_angle_alpha   90.00000000
_cell_angle_beta   90.00000000
_cell_angle_gamma   90.00000000
_symmetry_Int_Tables_number   1
_chemical_formula_structural   LiF
_chemical_formula_sum   'Li24 F24'
_cell_volume   519.57687189
_cell_formula_units_Z   24
loop_
 _symmetry_equiv_pos_site_id
 _symmetry_equiv_pos_as_xyz
  1  'x, y, z'
loop_
 _atom_site_type_symbol
 _atom_site_label
 _atom_site_symmetry_multiplicity
 _atom_site_fract_x
 _atom_site_fract_y
 _atom_site_fract_z
 _atom_site_occupancy
  F  F0  1  0.30772516  0.95667285  0.38471778  1
  F  F1  1  0.19227484  0.04332715  0.88471778  1
  F  F2  1  0.69227484  0.45667285  0.61528222  1
  F  F3  1  0.80772516  0.54332715  0.11528222  1
  F  F4  1  0.69227484  0.04332715  0.61528222  1
  F  F5  1  0.80772516  0.95667285  0.11528222  1
  F  F6  1  0.30772516  0.54332715  0.38471778  1
  F  F7  1  0.19227484  0.45667285  0.88471778  1
  F  F8  1  0.63942621  0.46916675  0.12138685  1
  F  F9  1  0.86057379  0.53083325  0.62138685  1
  F  F10  1  0.36057379  0.96916675  0.87861315  1
  F  F11  1  0.13942621  0.03083325  0.37861315  1
  F  F12  1  0.36057379  0.53083325  0.87861315  1
  F  F13  1  0.13942621  0.46916675  0.37861315  1
  F  F14  1  0.63942621  0.03083325  0.12138685  1
  F  F15  1  0.86057379  0.96916675  0.62138685  1
  F  F16  1  0.10321188  0.36468670  0.24356594  1
  F  F17  1  0.39678812  0.63531330  0.74356594  1
  F  F18  1  0.89678812  0.86468670  0.75643406  1
  F  F19  1  0.60321188  0.13531330  0.25643406  1
  F  F20  1  0.89678812  0.63531330  0.75643406  1
  F  F21  1  0.60321188  0.36468670  0.25643406  1
  F  F22  1  0.10321188  0.13531330  0.24356594  1
  F  F23  1  0.39678812  0.86468670  0.74356594  1
  Li  Li24  1  0.31150024  0.25000000  0.73873580  1
  Li  Li25  1  0.18849976  0.75000000  0.23873580  1
  Li  Li26  1  0.68849976  0.75000000  0.26126420  1
  Li  Li27  1  0.81150024  0.25000000  0.76126420  1
  Li  Li28  1  0.28408882  0.88570014  0.71277340  1
  Li  Li29  1  0.21591118  -0.88570014  1.21277340  1
  Li  Li30  1  -0.28408882  1.38570014  -0.71277340  1
  Li  Li31  1  0.78408882  -0.38570014  -0.21277340  1
  Li  Li32  1  -0.28408882  -0.88570014  -0.71277340  1
  Li  Li33  1  0.78408882  0.88570014  -0.21277340  1
  Li  Li34  1  0.28408882  -0.38570014  0.71277340  1
  Li  Li35  1  0.21591118  1.38570014  1.21277340  1
  Li  Li36  1  0.00000000  0.00000000  0.50000000  1
  Li  Li37  1  0.50000000  0.00000000  0.00000000  1
  Li  Li38  1  0.00000000  0.50000000  0.50000000  1
  Li  Li39  1  0.50000000  0.50000000  0.00000000  1
  Li  Li40  1  0.05958387  0.25000000  0.15488119  1
  Li  Li41  1  0.44041613  0.75000000  0.65488119  1
  Li  Li42  1  0.94041613  0.75000000  0.84511881  1
  Li  Li43  1  0.55958387  0.25000000  0.34511881  1
  Li  Li44  1  0.68116206  0.25000000  0.00423941  1
  Li  Li45  1  0.81883794  0.75000000  0.50423941  1
  Li  Li46  1  0.31883794  0.75000000  0.99576059  1
  Li  Li47  1  0.18116206  0.25000000  0.49576059  1
