# generated using pymatgen
data_LiF
_symmetry_space_group_name_H-M   'P 1'
_cell_length_a   9.64063775
_cell_length_b   9.64063775
_cell_length_c   15.14495200
_cell_angle_alpha   90.00000000
_cell_angle_beta   90.00000000
_cell_angle_gamma   120.00000000
_symmetry_Int_Tables_number   1
_chemical_formula_structural   LiF
_chemical_formula_sum   'Li37 F37'
_cell_volume   1219.01784043
_cell_formula_units_Z   37
loop_
 _symmetry_equiv_pos_site_id
 _symmetry_equiv_pos_as_xyz
  1  'x, y, z'
loop_
 _atom_site_type_symbol
 _atom_site_label
 _atom_site_symmetry_multiplicity
 _atom_site_fract_x
 _atom_site_fract_y
 _atom_site_fract_z
 _atom_site_occupancy
  F  F0  1  0.48063566  0.46590847  0.97854966  1
  F  F1  1  0.53409153  0.01472720  0.97854966  1
  F  F2  1  0.98527280  0.51936434  0.97854966  1
  F  F3  1  0.53409153  0.51936434  0.02145034  1
  F  F4  1  0.98527280  0.46590847  0.02145034  1
  F  F5  1  0.48063566  0.01472720  0.02145034  1
  F  F6  1  0.50516847  0.55304919  0.61563199  1
  F  F7  1  0.44695081  0.95211929  0.61563199  1
  F  F8  1  0.04788071  0.49483153  0.61563199  1
  F  F9  1  0.44695081  0.49483153  0.38436801  1
  F  F10  1  0.04788071  0.55304919  0.38436801  1
  F  F11  1  0.50516847  0.95211929  0.38436801  1
  F  F12  1  0.55000856  0.22746752  0.34238084  1
  F  F13  1  0.77253248  0.32254104  0.34238084  1
  F  F14  1  0.67745896  0.44999144  0.34238084  1
  F  F15  1  0.77253248  0.44999144  0.65761916  1
  F  F16  1  0.67745896  0.22746752  0.65761916  1
  F  F17  1  0.55000856  0.32254104  0.65761916  1
  F  F18  1  0.21884456  0.03086295  0.82681661  1
  F  F19  1  0.96913705  0.18798160  0.82681661  1
  F  F20  1  0.81201840  0.78115544  0.82681661  1
  F  F21  1  0.96913705  0.78115544  0.17318339  1
  F  F22  1  0.81201840  0.03086295  0.17318339  1
  F  F23  1  0.21884456  0.18798160  0.17318339  1
  F  F24  1  0.13521103  0.86478897  -0.00000000  1
  F  F25  1  0.13521103  0.27042205  0.00000000  1
  F  F26  1  0.72957795  0.86478897  -0.00000000  1
  F  F27  1  0.01944116  0.93796733  0.06998803  1
  F  F28  1  0.06203267  0.08147383  0.06998803  1
  F  F29  1  0.91852617  0.98055884  0.06998803  1
  F  F30  1  0.06203267  0.98055884  0.93001197  1
  F  F31  1  0.91852617  0.93796733  0.93001197  1
  F  F32  1  0.01944116  0.08147383  0.93001197  1
  F  F33  1  0.42266755  0.57733245  -0.00000000  1
  F  F34  1  0.42266755  0.84533509  -0.00000000  1
  F  F35  1  0.15466491  0.57733245  0.00000000  1
  F  F36  1  0.33333333  0.66666667  0.50000000  1
  Li  Li37  1  0.33333333  0.66666667  0.72869934  1
  Li  Li38  1  0.33333333  0.66666667  0.27130066  1
  Li  Li39  1  0.52503804  0.72069099  0.95128260  1
  Li  Li40  1  -0.72069099  -0.19565295  0.95128260  1
  Li  Li41  1  0.19565295  -0.52503804  0.95128260  1
  Li  Li42  1  -0.72069099  -0.52503804  -0.95128260  1
  Li  Li43  1  0.19565295  0.72069099  -0.95128260  1
  Li  Li44  1  0.52503804  -0.19565295  -0.95128260  1
  Li  Li45  1  0.34674134  0.50489587  0.16629222  1
  Li  Li46  1  0.49510413  0.84184547  0.16629222  1
  Li  Li47  1  0.15815453  0.65325866  0.16629222  1
  Li  Li48  1  0.49510413  0.65325866  0.83370778  1
  Li  Li49  1  0.15815453  0.50489587  0.83370778  1
  Li  Li50  1  0.34674134  0.84184547  0.83370778  1
  Li  Li51  1  0.33333333  0.66666667  -0.00000000  1
  Li  Li52  1  0.05830760  0.22460854  0.37111900  1
  Li  Li53  1  0.77539146  0.83369906  0.37111900  1
  Li  Li54  1  0.16630094  0.94169240  0.37111900  1
  Li  Li55  1  0.77539146  0.94169240  0.62888100  1
  Li  Li56  1  0.16630094  0.22460854  0.62888100  1
  Li  Li57  1  0.05830760  0.83369906  0.62888100  1
  Li  Li58  1  0.38884905  0.48604990  0.83406146  1
  Li  Li59  1  0.51395010  0.90279915  0.83406146  1
  Li  Li60  1  0.09720085  0.61115095  0.83406146  1
  Li  Li61  1  0.51395010  0.61115095  0.16593854  1
  Li  Li62  1  0.09720085  0.48604990  0.16593854  1
  Li  Li63  1  0.38884905  0.90279915  0.16593854  1
  Li  Li64  1  0.33333333  0.66666667  0.11569497  1
  Li  Li65  1  0.33333333  0.66666667  0.88430503  1
  Li  Li66  1  0.75867988  0.81894835  0.18307092  1
  Li  Li67  1  0.18105165  0.93973153  0.18307092  1
  Li  Li68  1  0.06026847  0.24132012  0.18307092  1
  Li  Li69  1  0.18105165  0.24132012  0.81692908  1
  Li  Li70  1  0.06026847  0.81894835  0.81692908  1
  Li  Li71  1  0.75867988  0.93973153  0.81692908  1
  Li  Li72  1  0.66666667  0.33333333  0.11492607  1
  Li  Li73  1  0.66666667  0.33333333  0.88507393  1
