# generated using pymatgen
data_Li2ScTiF
_symmetry_space_group_name_H-M   'P 1'
_cell_length_a   3.18034892
_cell_length_b   3.09976500
_cell_length_c   5.61967539
_cell_angle_alpha   104.70011827
_cell_angle_beta   108.26329564
_cell_angle_gamma   111.78865422
_symmetry_Int_Tables_number   1
_chemical_formula_structural   Li2ScTiF
_chemical_formula_sum   'Li2 Sc1 Ti1 F1'
_cell_volume   44.34067140
_cell_formula_units_Z   1
loop_
 _symmetry_equiv_pos_site_id
 _symmetry_equiv_pos_as_xyz
  1  'x, y, z'
loop_
 _atom_site_type_symbol
 _atom_site_label
 _atom_site_symmetry_multiplicity
 _atom_site_fract_x
 _atom_site_fract_y
 _atom_site_fract_z
 _atom_site_occupancy
  F  F0  1  0.00000000  0.00000000  0.00000000  1
  Sc  Sc1  1  0.33300000  0.66700000  0.25000000  1
  Ti  Ti2  1  0.66700000  0.33300000  0.50000000  1
  Li  Li3  1  0.00000000  0.00000000  0.75000000  1
  Li  Li4  1  0.66515693  0.41190082  0.69187283  1
