# generated using pymatgen
data_Li3Y2(P2Se)2
_symmetry_space_group_name_H-M   'P 1'
_cell_length_a   5.51927959
_cell_length_b   5.85872447
_cell_length_c   7.39884373
_cell_angle_alpha   93.77805705
_cell_angle_beta   98.22782282
_cell_angle_gamma   105.17495362
_symmetry_Int_Tables_number   1
_chemical_formula_structural   Li3Y2(P2Se)2
_chemical_formula_sum   'Li3 Y2 P4 Se2'
_cell_volume   227.18776421
_cell_formula_units_Z   1
loop_
 _symmetry_equiv_pos_site_id
 _symmetry_equiv_pos_as_xyz
  1  'x, y, z'
loop_
 _atom_site_type_symbol
 _atom_site_label
 _atom_site_symmetry_multiplicity
 _atom_site_fract_x
 _atom_site_fract_y
 _atom_site_fract_z
 _atom_site_occupancy
  P  P0  1  0.00000000  0.00000000  0.00000000  1
  P  P1  1  0.33300000  0.66700000  0.25000000  1
  P  P2  1  0.66700000  0.33300000  0.50000000  1
  P  P3  1  0.00000000  0.00000000  0.75000000  1
  Se  Se4  1  0.33516954  0.97580926  0.07411467  1
  Se  Se5  1  0.17346542  0.37496683  0.88473383  1
  Li  Li6  1  0.35053538  0.42178495  0.38355518  1
  Li  Li7  1  0.75464705  0.30193632  0.86605891  1
  Li  Li8  1  0.65528697  0.91042571  0.77876027  1
  Y  Y9  1  0.75598269  0.66583084  0.83826561  1
  Y  Y10  1  0.36173801  0.35692613  0.85024720  1
