# generated using pymatgen
data_LiF
_symmetry_space_group_name_H-M   'P 1'
_cell_length_a   9.26113993
_cell_length_b   6.80829102
_cell_length_c   11.04618860
_cell_angle_alpha   90.00000000
_cell_angle_beta   90.00000000
_cell_angle_gamma   90.00000000
_symmetry_Int_Tables_number   1
_chemical_formula_structural   LiF
_chemical_formula_sum   'Li24 F24'
_cell_volume   696.49020224
_cell_formula_units_Z   24
loop_
 _symmetry_equiv_pos_site_id
 _symmetry_equiv_pos_as_xyz
  1  'x, y, z'
loop_
 _atom_site_type_symbol
 _atom_site_label
 _atom_site_symmetry_multiplicity
 _atom_site_fract_x
 _atom_site_fract_y
 _atom_site_fract_z
 _atom_site_occupancy
  F  F0  1  0.00000000  0.00000000  0.00000000  1
  F  F1  1  0.50000000  0.00000000  0.50000000  1
  F  F2  1  0.00000000  0.50000000  0.00000000  1
  F  F3  1  0.50000000  0.50000000  0.50000000  1
  F  F4  1  0.07058549  0.16352630  0.71425425  1
  F  F5  1  0.42941451  0.83647370  0.21425425  1
  F  F6  1  0.92941451  0.66352630  0.28574575  1
  F  F7  1  0.57058549  0.33647370  0.78574575  1
  F  F8  1  0.92941451  0.83647370  0.28574575  1
  F  F9  1  0.57058549  0.16352630  0.78574575  1
  F  F10  1  0.07058549  0.33647370  0.71425425  1
  F  F11  1  0.42941451  0.66352630  0.21425425  1
  F  F12  1  0.44951326  0.67479637  0.08255384  1
  F  F13  1  0.05048674  0.32520363  0.58255384  1
  F  F14  1  0.55048674  0.17479637  0.91744616  1
  F  F15  1  0.94951326  0.82520363  0.41744616  1
  F  F16  1  0.55048674  0.32520363  0.91744616  1
  F  F17  1  0.94951326  0.67479637  0.41744616  1
  F  F18  1  0.44951326  0.82520363  0.08255384  1
  F  F19  1  0.05048674  0.17479637  0.58255384  1
  F  F20  1  0.37305990  0.25000000  0.81691957  1
  F  F21  1  0.12694010  0.75000000  0.31691957  1
  F  F22  1  0.62694010  0.75000000  0.18308043  1
  F  F23  1  0.87305990  0.25000000  0.68308043  1
  Li  Li24  1  0.18085715  0.98075410  0.27367990  1
  Li  Li25  1  0.31914285  -0.98075410  0.77367990  1
  Li  Li26  1  -0.18085715  1.48075410  -0.27367990  1
  Li  Li27  1  0.68085715  -0.48075410  0.22632010  1
  Li  Li28  1  -0.18085715  -0.98075410  -0.27367990  1
  Li  Li29  1  0.68085715  0.98075410  0.22632010  1
  Li  Li30  1  0.18085715  -0.48075410  0.27367990  1
  Li  Li31  1  0.31914285  1.48075410  0.77367990  1
  Li  Li32  1  0.12392331  0.44084091  0.83896716  1
  Li  Li33  1  0.37607669  0.55915909  0.33896716  1
  Li  Li34  1  0.87607669  0.94084091  0.16103284  1
  Li  Li35  1  0.62392331  0.05915909  0.66103284  1
  Li  Li36  1  0.87607669  0.55915909  0.16103284  1
  Li  Li37  1  0.62392331  0.44084091  0.66103284  1
  Li  Li38  1  0.12392331  0.05915909  0.83896716  1
  Li  Li39  1  0.37607669  0.94084091  0.33896716  1
  Li  Li40  1  0.50600283  0.99998340  0.12724376  1
  Li  Li41  1  0.99399717  0.00001660  0.62724376  1
  Li  Li42  1  0.49399717  0.49998340  0.87275624  1
  Li  Li43  1  0.00600283  0.50001660  0.37275624  1
  Li  Li44  1  0.49399717  0.00001660  0.87275624  1
  Li  Li45  1  0.00600283  0.99998340  0.37275624  1
  Li  Li46  1  0.50600283  0.50001660  0.12724376  1
  Li  Li47  1  0.99399717  0.49998340  0.62724376  1
