# generated using pymatgen
data_LiF
_symmetry_space_group_name_H-M   'P 1'
_cell_length_a   8.11541036
_cell_length_b   5.74238227
_cell_length_c   13.46070618
_cell_angle_alpha   90.00000000
_cell_angle_beta   90.00000000
_cell_angle_gamma   90.00000000
_symmetry_Int_Tables_number   1
_chemical_formula_structural   LiF
_chemical_formula_sum   'Li24 F24'
_cell_volume   627.29298315
_cell_formula_units_Z   24
loop_
 _symmetry_equiv_pos_site_id
 _symmetry_equiv_pos_as_xyz
  1  'x, y, z'
loop_
 _atom_site_type_symbol
 _atom_site_label
 _atom_site_symmetry_multiplicity
 _atom_site_fract_x
 _atom_site_fract_y
 _atom_site_fract_z
 _atom_site_occupancy
  F  F0  1  0.62098401  0.32938221  0.21981449  1
  F  F1  1  0.87901599  0.67061779  0.71981449  1
  F  F2  1  0.37901599  0.82938221  0.78018551  1
  F  F3  1  0.12098401  0.17061779  0.28018551  1
  F  F4  1  0.37901599  0.67061779  0.78018551  1
  F  F5  1  0.12098401  0.32938221  0.28018551  1
  F  F6  1  0.62098401  0.17061779  0.21981449  1
  F  F7  1  0.87901599  0.82938221  0.71981449  1
  F  F8  1  0.58885299  0.19884284  0.82248329  1
  F  F9  1  0.91114701  0.80115716  0.32248329  1
  F  F10  1  0.41114701  0.69884284  0.17751671  1
  F  F11  1  0.08885299  0.30115716  0.67751671  1
  F  F12  1  0.41114701  0.80115716  0.17751671  1
  F  F13  1  0.08885299  0.19884284  0.67751671  1
  F  F14  1  0.58885299  0.30115716  0.82248329  1
  F  F15  1  0.91114701  0.69884284  0.32248329  1
  F  F16  1  0.29413293  0.25000000  0.84873210  1
  F  F17  1  0.20586707  0.75000000  0.34873210  1
  F  F18  1  0.70586707  0.75000000  0.15126790  1
  F  F19  1  0.79413293  0.25000000  0.65126790  1
  F  F20  1  0.88647882  0.25000000  0.58909101  1
  F  F21  1  0.61352118  0.75000000  0.08909101  1
  F  F22  1  0.11352118  0.75000000  0.41090899  1
  F  F23  1  0.38647882  0.25000000  0.91090899  1
  Li  Li24  1  0.96638202  0.25000000  0.63841573  1
  Li  Li25  1  0.53361798  0.75000000  0.13841573  1
  Li  Li26  1  0.03361798  0.75000000  0.36158427  1
  Li  Li27  1  0.46638202  0.25000000  0.86158427  1
  Li  Li28  1  0.84553933  0.59780841  0.23346145  1
  Li  Li29  1  -0.34553933  -0.59780841  0.73346145  1
  Li  Li30  1  -0.84553933  1.09780841  -0.23346145  1
  Li  Li31  1  1.34553933  -0.09780841  0.26653855  1
  Li  Li32  1  -0.84553933  -0.59780841  -0.23346145  1
  Li  Li33  1  1.34553933  0.59780841  0.26653855  1
  Li  Li34  1  0.84553933  -0.09780841  0.23346145  1
  Li  Li35  1  -0.34553933  1.09780841  0.73346145  1
  Li  Li36  1  0.96046309  0.97952392  0.95937897  1
  Li  Li37  1  0.53953691  0.02047608  0.45937897  1
  Li  Li38  1  0.03953691  0.47952392  0.04062103  1
  Li  Li39  1  0.46046309  0.52047608  0.54062103  1
  Li  Li40  1  0.03953691  0.02047608  0.04062103  1
  Li  Li41  1  0.46046309  0.97952392  0.54062103  1
  Li  Li42  1  0.96046309  0.52047608  0.95937897  1
  Li  Li43  1  0.53953691  0.47952392  0.45937897  1
  Li  Li44  1  0.00000000  0.00000000  0.50000000  1
  Li  Li45  1  0.50000000  0.00000000  -0.00000000  1
  Li  Li46  1  0.00000000  0.50000000  0.50000000  1
  Li  Li47  1  0.50000000  0.50000000  -0.00000000  1
