# generated using pymatgen
data_LiF
_symmetry_space_group_name_H-M   'P 1'
_cell_length_a   10.60708396
_cell_length_b   10.60708396
_cell_length_c   4.42944158
_cell_angle_alpha   90.00000000
_cell_angle_beta   90.00000000
_cell_angle_gamma   120.00000000
_symmetry_Int_Tables_number   1
_chemical_formula_structural   LiF
_chemical_formula_sum   'Li16 F16'
_cell_volume   431.59024797
_cell_formula_units_Z   16
loop_
 _symmetry_equiv_pos_site_id
 _symmetry_equiv_pos_as_xyz
  1  'x, y, z'
loop_
 _atom_site_type_symbol
 _atom_site_label
 _atom_site_symmetry_multiplicity
 _atom_site_fract_x
 _atom_site_fract_y
 _atom_site_fract_z
 _atom_site_occupancy
  F  F0  1  0.63510150  0.36489850  0.00000000  1
  F  F1  1  0.63510150  0.27020299  0.00000000  1
  F  F2  1  0.72979701  0.36489850  0.00000000  1
  F  F3  1  0.30306742  0.37210657  0.77222897  1
  F  F4  1  0.62789343  0.93096085  0.77222897  1
  F  F5  1  0.06903915  0.69693258  0.77222897  1
  F  F6  1  0.62789343  0.69693258  0.22777103  1
  F  F7  1  0.06903915  0.37210657  0.22777103  1
  F  F8  1  0.30306742  0.93096085  0.22777103  1
  F  F9  1  0.32766010  0.58631482  0.83575279  1
  F  F10  1  0.41368518  0.74134528  0.83575279  1
  F  F11  1  0.25865472  0.67233990  0.83575279  1
  F  F12  1  0.41368518  0.67233990  0.16424721  1
  F  F13  1  0.25865472  0.58631482  0.16424721  1
  F  F14  1  0.32766010  0.74134528  0.16424721  1
  F  F15  1  0.00000000  0.00000000  0.50000000  1
  Li  Li16  1  0.12359122  0.30044940  0.72907554  1
  Li  Li17  1  -0.30044940  -0.17685817  0.72907554  1
  Li  Li18  1  0.17685817  -0.12359122  0.72907554  1
  Li  Li19  1  -0.30044940  -0.12359122  -0.72907554  1
  Li  Li20  1  0.17685817  0.30044940  -0.72907554  1
  Li  Li21  1  0.12359122  -0.17685817  -0.72907554  1
  Li  Li22  1  0.03055170  0.35699220  0.46130858  1
  Li  Li23  1  0.64300780  0.67355949  0.46130858  1
  Li  Li24  1  0.32644051  0.96944830  0.46130858  1
  Li  Li25  1  0.64300780  0.96944830  0.53869142  1
  Li  Li26  1  0.32644051  0.35699220  0.53869142  1
  Li  Li27  1  0.03055170  0.67355949  0.53869142  1
  Li  Li28  1  0.40450802  0.59549198  0.00000000  1
  Li  Li29  1  0.40450802  0.80901603  0.00000000  1
  Li  Li30  1  0.19098397  0.59549198  0.00000000  1
  Li  Li31  1  0.33333333  0.66666667  0.50000000  1
