# generated using pymatgen
data_LiF
_symmetry_space_group_name_H-M   'P 1'
_cell_length_a   4.78885867
_cell_length_b   4.78885867
_cell_length_c   19.40149602
_cell_angle_alpha   90.00000000
_cell_angle_beta   90.00000000
_cell_angle_gamma   90.00000000
_symmetry_Int_Tables_number   1
_chemical_formula_structural   LiF
_chemical_formula_sum   'Li15 F15'
_cell_volume   444.93775542
_cell_formula_units_Z   15
loop_
 _symmetry_equiv_pos_site_id
 _symmetry_equiv_pos_as_xyz
  1  'x, y, z'
loop_
 _atom_site_type_symbol
 _atom_site_label
 _atom_site_symmetry_multiplicity
 _atom_site_fract_x
 _atom_site_fract_y
 _atom_site_fract_z
 _atom_site_occupancy
  F  F0  1  0.22086098  0.50000000  0.00000000  1
  F  F1  1  0.77913902  0.50000000  -0.00000000  1
  F  F2  1  0.50000000  0.22086098  0.00000000  1
  F  F3  1  0.50000000  0.77913902  0.00000000  1
  F  F4  1  0.50000000  0.50000000  0.00000000  1
  F  F5  1  0.26145643  0.26145643  0.00000000  1
  F  F6  1  0.73854357  0.73854357  -0.00000000  1
  F  F7  1  0.73854357  0.26145643  0.00000000  1
  F  F8  1  0.26145643  0.73854357  0.00000000  1
  F  F9  1  0.00000000  0.50000000  0.00000000  1
  F  F10  1  0.50000000  0.00000000  0.00000000  1
  F  F11  1  0.65282000  0.00000000  0.00000000  1
  F  F12  1  0.34718000  0.00000000  0.00000000  1
  F  F13  1  0.00000000  0.65282000  0.00000000  1
  F  F14  1  0.00000000  0.34718000  0.00000000  1
  Li  Li15  1  0.00000000  0.50000000  0.50000000  1
  Li  Li16  1  0.50000000  0.00000000  0.50000000  1
  Li  Li17  1  0.86392829  0.50000000  0.91276039  1
  Li  Li18  1  -0.86392829  0.50000000  0.91276039  1
  Li  Li19  1  0.50000000  0.86392829  0.91276039  1
  Li  Li20  1  0.50000000  -0.86392829  0.91276039  1
  Li  Li21  1  -0.86392829  0.50000000  -0.91276039  1
  Li  Li22  1  0.86392829  0.50000000  -0.91276039  1
  Li  Li23  1  0.50000000  0.86392829  -0.91276039  1
  Li  Li24  1  0.50000000  -0.86392829  -0.91276039  1
  Li  Li25  1  0.00000000  0.50000000  0.83464599  1
  Li  Li26  1  0.50000000  0.00000000  0.83464599  1
  Li  Li27  1  0.00000000  0.50000000  0.16535401  1
  Li  Li28  1  0.50000000  0.00000000  0.16535401  1
  Li  Li29  1  0.00000000  0.00000000  0.00000000  1
