# generated using pymatgen
data_LiF
_symmetry_space_group_name_H-M   'P 1'
_cell_length_a   11.84921356
_cell_length_b   10.64479820
_cell_length_c   15.79250408
_cell_angle_alpha   90.00000000
_cell_angle_beta   90.00000000
_cell_angle_gamma   90.00000000
_symmetry_Int_Tables_number   1
_chemical_formula_structural   LiF
_chemical_formula_sum   'Li52 F52'
_cell_volume   1991.94781736
_cell_formula_units_Z   52
loop_
 _symmetry_equiv_pos_site_id
 _symmetry_equiv_pos_as_xyz
  1  'x, y, z'
loop_
 _atom_site_type_symbol
 _atom_site_label
 _atom_site_symmetry_multiplicity
 _atom_site_fract_x
 _atom_site_fract_y
 _atom_site_fract_z
 _atom_site_occupancy
  F  F0  1  0.00000000  0.50000000  0.50000000  1
  F  F1  1  0.50000000  0.00000000  0.50000000  1
  F  F2  1  0.84338230  0.21456815  0.83300856  1
  F  F3  1  0.15661770  0.78543185  0.83300856  1
  F  F4  1  0.65661770  0.71456815  0.16699144  1
  F  F5  1  0.34338230  0.28543185  0.16699144  1
  F  F6  1  0.15661770  0.78543185  0.16699144  1
  F  F7  1  0.84338230  0.21456815  0.16699144  1
  F  F8  1  0.34338230  0.28543185  0.83300856  1
  F  F9  1  0.65661770  0.71456815  0.83300856  1
  F  F10  1  0.56072555  0.24605967  0.59724055  1
  F  F11  1  0.43927445  0.75394033  0.59724055  1
  F  F12  1  0.93927445  0.74605967  0.40275945  1
  F  F13  1  0.06072555  0.25394033  0.40275945  1
  F  F14  1  0.43927445  0.75394033  0.40275945  1
  F  F15  1  0.56072555  0.24605967  0.40275945  1
  F  F16  1  0.06072555  0.25394033  0.59724055  1
  F  F17  1  0.93927445  0.74605967  0.59724055  1
  F  F18  1  0.00000000  0.50000000  0.00000000  1
  F  F19  1  0.50000000  0.00000000  0.00000000  1
  F  F20  1  0.85029274  0.35268241  0.30182145  1
  F  F21  1  0.14970726  0.64731759  0.30182145  1
  F  F22  1  0.64970726  0.85268241  0.69817855  1
  F  F23  1  0.35029274  0.14731759  0.69817855  1
  F  F24  1  0.14970726  0.64731759  0.69817855  1
  F  F25  1  0.85029274  0.35268241  0.69817855  1
  F  F26  1  0.35029274  0.14731759  0.30182145  1
  F  F27  1  0.64970726  0.85268241  0.30182145  1
  F  F28  1  0.06614663  0.77179918  0.35133679  1
  F  F29  1  0.93385337  0.22820082  0.35133679  1
  F  F30  1  0.43385337  0.27179918  0.64866321  1
  F  F31  1  0.56614663  0.72820082  0.64866321  1
  F  F32  1  0.93385337  0.22820082  0.64866321  1
  F  F33  1  0.06614663  0.77179918  0.64866321  1
  F  F34  1  0.56614663  0.72820082  0.35133679  1
  F  F35  1  0.43385337  0.27179918  0.35133679  1
  F  F36  1  0.00000000  0.50000000  0.95334979  1
  F  F37  1  0.50000000  0.00000000  0.04665021  1
  F  F38  1  0.00000000  0.50000000  0.04665021  1
  F  F39  1  0.50000000  0.00000000  0.95334979  1
  F  F40  1  0.00000000  0.00000000  0.00000000  1
  F  F41  1  0.50000000  0.50000000  0.00000000  1
  F  F42  1  0.48176022  0.89170025  0.65134660  1
  F  F43  1  0.51823978  0.10829975  0.65134660  1
  F  F44  1  0.01823978  0.39170025  0.34865340  1
  F  F45  1  0.98176022  0.60829975  0.34865340  1
  F  F46  1  0.51823978  0.10829975  0.34865340  1
  F  F47  1  0.48176022  0.89170025  0.34865340  1
  F  F48  1  0.98176022  0.60829975  0.65134660  1
  F  F49  1  0.01823978  0.39170025  0.65134660  1
  F  F50  1  0.00000000  0.00000000  0.50000000  1
  F  F51  1  0.50000000  0.50000000  0.50000000  1
  Li  Li52  1  0.68555067  0.79119282  0.85527710  1
  Li  Li53  1  -0.68555067  -0.79119282  0.85527710  1
  Li  Li54  1  -0.18555067  1.29119282  -0.85527710  1
  Li  Li55  1  1.18555067  -0.29119282  -0.85527710  1
  Li  Li56  1  -0.68555067  -0.79119282  -0.85527710  1
  Li  Li57  1  0.68555067  0.79119282  -0.85527710  1
  Li  Li58  1  1.18555067  -0.29119282  0.85527710  1
  Li  Li59  1  -0.18555067  1.29119282  0.85527710  1
  Li  Li60  1  0.63862871  0.31782082  0.90446641  1
  Li  Li61  1  0.36137129  0.68217918  0.90446641  1
  Li  Li62  1  0.86137129  0.81782082  0.09553359  1
  Li  Li63  1  0.13862871  0.18217918  0.09553359  1
  Li  Li64  1  0.36137129  0.68217918  0.09553359  1
  Li  Li65  1  0.63862871  0.31782082  0.09553359  1
  Li  Li66  1  0.13862871  0.18217918  0.90446641  1
  Li  Li67  1  0.86137129  0.81782082  0.90446641  1
  Li  Li68  1  0.00000000  0.00000000  0.65949172  1
  Li  Li69  1  0.50000000  0.50000000  0.34050828  1
  Li  Li70  1  0.00000000  0.00000000  0.34050828  1
  Li  Li71  1  0.50000000  0.50000000  0.65949172  1
  Li  Li72  1  0.99746003  0.83672743  0.21530578  1
  Li  Li73  1  0.00253997  0.16327257  0.21530578  1
  Li  Li74  1  0.50253997  0.33672743  0.78469422  1
  Li  Li75  1  0.49746003  0.66327257  0.78469422  1
  Li  Li76  1  0.00253997  0.16327257  0.78469422  1
  Li  Li77  1  0.99746003  0.83672743  0.78469422  1
  Li  Li78  1  0.49746003  0.66327257  0.21530578  1
  Li  Li79  1  0.50253997  0.33672743  0.21530578  1
  Li  Li80  1  0.91752623  0.48743068  0.35124883  1
  Li  Li81  1  0.08247377  0.51256932  0.35124883  1
  Li  Li82  1  0.58247377  0.98743068  0.64875117  1
  Li  Li83  1  0.41752623  0.01256932  0.64875117  1
  Li  Li84  1  0.08247377  0.51256932  0.64875117  1
  Li  Li85  1  0.91752623  0.48743068  0.64875117  1
  Li  Li86  1  0.41752623  0.01256932  0.35124883  1
  Li  Li87  1  0.58247377  0.98743068  0.35124883  1
  Li  Li88  1  0.94404818  0.37465814  0.15992322  1
  Li  Li89  1  0.05595182  0.62534186  0.15992322  1
  Li  Li90  1  0.55595182  0.87465814  0.84007678  1
  Li  Li91  1  0.44404818  0.12534186  0.84007678  1
  Li  Li92  1  0.05595182  0.62534186  0.84007678  1
  Li  Li93  1  0.94404818  0.37465814  0.84007678  1
  Li  Li94  1  0.44404818  0.12534186  0.15992322  1
  Li  Li95  1  0.55595182  0.87465814  0.15992322  1
  Li  Li96  1  0.95704645  0.08833084  -0.00000000  1
  Li  Li97  1  0.04295355  0.91166916  -0.00000000  1
  Li  Li98  1  0.54295355  0.58833084  0.00000000  1
  Li  Li99  1  0.45704645  0.41166916  0.00000000  1
  Li  Li100  1  0.78720194  0.07893226  0.00000000  1
  Li  Li101  1  0.21279806  0.92106774  -0.00000000  1
  Li  Li102  1  0.71279806  0.57893226  0.00000000  1
  Li  Li103  1  0.28720194  0.42106774  -0.00000000  1
