# generated using pymatgen
data_LiF
_symmetry_space_group_name_H-M   'P 1'
_cell_length_a   10.63870482
_cell_length_b   11.28863393
_cell_length_c   11.36635531
_cell_angle_alpha   90.00000000
_cell_angle_beta   90.00000000
_cell_angle_gamma   90.00000000
_symmetry_Int_Tables_number   1
_chemical_formula_structural   LiF
_chemical_formula_sum   'Li48 F48'
_cell_volume   1365.05885662
_cell_formula_units_Z   48
loop_
 _symmetry_equiv_pos_site_id
 _symmetry_equiv_pos_as_xyz
  1  'x, y, z'
loop_
 _atom_site_type_symbol
 _atom_site_label
 _atom_site_symmetry_multiplicity
 _atom_site_fract_x
 _atom_site_fract_y
 _atom_site_fract_z
 _atom_site_occupancy
  F  F0  1  0.55600943  0.49672741  0.65898904  1
  F  F1  1  0.94399057  0.50327259  0.15898904  1
  F  F2  1  0.44399057  0.99672741  0.34101096  1
  F  F3  1  0.05600943  0.00327259  0.84101096  1
  F  F4  1  0.44399057  0.50327259  0.34101096  1
  F  F5  1  0.05600943  0.49672741  0.84101096  1
  F  F6  1  0.55600943  0.00327259  0.65898904  1
  F  F7  1  0.94399057  0.99672741  0.15898904  1
  F  F8  1  0.15974606  0.17040691  0.60432231  1
  F  F9  1  0.34025394  0.82959309  0.10432231  1
  F  F10  1  0.84025394  0.67040691  0.39567769  1
  F  F11  1  0.65974606  0.32959309  0.89567769  1
  F  F12  1  0.84025394  0.82959309  0.39567769  1
  F  F13  1  0.65974606  0.17040691  0.89567769  1
  F  F14  1  0.15974606  0.32959309  0.60432231  1
  F  F15  1  0.34025394  0.67040691  0.10432231  1
  F  F16  1  0.02244263  0.25000000  0.61409283  1
  F  F17  1  0.47755737  0.75000000  0.11409283  1
  F  F18  1  0.97755737  0.75000000  0.38590717  1
  F  F19  1  0.52244263  0.25000000  0.88590717  1
  F  F20  1  0.93601744  0.82387899  0.01330015  1
  F  F21  1  0.56398256  0.17612101  0.51330015  1
  F  F22  1  0.06398256  0.32387899  0.98669985  1
  F  F23  1  0.43601744  0.67612101  0.48669985  1
  F  F24  1  0.06398256  0.17612101  0.98669985  1
  F  F25  1  0.43601744  0.82387899  0.48669985  1
  F  F26  1  0.93601744  0.67612101  0.01330015  1
  F  F27  1  0.56398256  0.32387899  0.51330015  1
  F  F28  1  0.87921191  0.02167043  0.10973592  1
  F  F29  1  0.62078809  0.97832957  0.60973592  1
  F  F30  1  0.12078809  0.52167043  0.89026408  1
  F  F31  1  0.37921191  0.47832957  0.39026408  1
  F  F32  1  0.12078809  0.97832957  0.89026408  1
  F  F33  1  0.37921191  0.02167043  0.39026408  1
  F  F34  1  0.87921191  0.47832957  0.10973592  1
  F  F35  1  0.62078809  0.52167043  0.60973592  1
  F  F36  1  0.75272303  0.25000000  0.39847344  1
  F  F37  1  0.74727697  0.75000000  0.89847344  1
  F  F38  1  0.24727697  0.75000000  0.60152656  1
  F  F39  1  0.25272303  0.25000000  0.10152656  1
  F  F40  1  0.13185383  0.47054412  0.84603378  1
  F  F41  1  0.36814617  0.52945588  0.34603378  1
  F  F42  1  0.86814617  0.97054412  0.15396622  1
  F  F43  1  0.63185383  0.02945588  0.65396622  1
  F  F44  1  0.86814617  0.52945588  0.15396622  1
  F  F45  1  0.63185383  0.47054412  0.65396622  1
  F  F46  1  0.13185383  0.02945588  0.84603378  1
  F  F47  1  0.36814617  0.97054412  0.34603378  1
  Li  Li48  1  0.25587991  0.14242972  0.30707343  1
  Li  Li49  1  0.24412009  -0.14242972  0.80707343  1
  Li  Li50  1  -0.25587991  0.64242972  -0.30707343  1
  Li  Li51  1  0.75587991  0.35757028  0.19292657  1
  Li  Li52  1  -0.25587991  -0.14242972  -0.30707343  1
  Li  Li53  1  0.75587991  0.14242972  0.19292657  1
  Li  Li54  1  0.25587991  0.35757028  0.30707343  1
  Li  Li55  1  0.24412009  0.64242972  0.80707343  1
  Li  Li56  1  0.28469849  0.38758572  0.13024500  1
  Li  Li57  1  0.21530151  0.61241428  0.63024500  1
  Li  Li58  1  0.71530151  0.88758572  0.86975500  1
  Li  Li59  1  0.78469849  0.11241428  0.36975500  1
  Li  Li60  1  0.71530151  0.61241428  0.86975500  1
  Li  Li61  1  0.78469849  0.38758572  0.36975500  1
  Li  Li62  1  0.28469849  0.11241428  0.13024500  1
  Li  Li63  1  0.21530151  0.88758572  0.63024500  1
  Li  Li64  1  0.00000000  0.00000000  0.50000000  1
  Li  Li65  1  0.50000000  0.00000000  0.00000000  1
  Li  Li66  1  0.00000000  0.50000000  0.50000000  1
  Li  Li67  1  0.50000000  0.50000000  0.00000000  1
  Li  Li68  1  0.00000000  0.00000000  0.00000000  1
  Li  Li69  1  0.50000000  0.00000000  0.50000000  1
  Li  Li70  1  0.00000000  0.50000000  0.00000000  1
  Li  Li71  1  0.50000000  0.50000000  0.50000000  1
  Li  Li72  1  0.97254671  0.93256281  0.81200920  1
  Li  Li73  1  0.52745329  0.06743719  0.31200920  1
  Li  Li74  1  0.02745329  0.43256281  0.18799080  1
  Li  Li75  1  0.47254671  0.56743719  0.68799080  1
  Li  Li76  1  0.02745329  0.06743719  0.18799080  1
  Li  Li77  1  0.47254671  0.93256281  0.68799080  1
  Li  Li78  1  0.97254671  0.56743719  0.81200920  1
  Li  Li79  1  0.52745329  0.43256281  0.31200920  1
  Li  Li80  1  0.43577847  0.07449131  0.17855400  1
  Li  Li81  1  0.06422153  0.92550869  0.67855400  1
  Li  Li82  1  0.56422153  0.57449131  0.82144600  1
  Li  Li83  1  0.93577847  0.42550869  0.32144600  1
  Li  Li84  1  0.56422153  0.92550869  0.82144600  1
  Li  Li85  1  0.93577847  0.07449131  0.32144600  1
  Li  Li86  1  0.43577847  0.42550869  0.17855400  1
  Li  Li87  1  0.06422153  0.57449131  0.67855400  1
  Li  Li88  1  0.42302865  0.84229275  0.20490355  1
  Li  Li89  1  0.07697135  0.15770725  0.70490355  1
  Li  Li90  1  0.57697135  0.34229275  0.79509645  1
  Li  Li91  1  0.92302865  0.65770725  0.29509645  1
  Li  Li92  1  0.57697135  0.15770725  0.79509645  1
  Li  Li93  1  0.92302865  0.84229275  0.29509645  1
  Li  Li94  1  0.42302865  0.65770725  0.20490355  1
  Li  Li95  1  0.07697135  0.34229275  0.70490355  1
