# generated using pymatgen
data_Li3YAlOF
_symmetry_space_group_name_H-M   'P 1'
_cell_length_a   3.15479105
_cell_length_b   3.17124675
_cell_length_c   5.28481259
_cell_angle_alpha   100.33706378
_cell_angle_beta   109.01236318
_cell_angle_gamma   112.53496984
_symmetry_Int_Tables_number   1
_chemical_formula_structural   Li3YAlOF
_chemical_formula_sum   'Li3 Y1 Al1 O1 F1'
_cell_volume   43.27770641
_cell_formula_units_Z   1
loop_
 _symmetry_equiv_pos_site_id
 _symmetry_equiv_pos_as_xyz
  1  'x, y, z'
loop_
 _atom_site_type_symbol
 _atom_site_label
 _atom_site_symmetry_multiplicity
 _atom_site_fract_x
 _atom_site_fract_y
 _atom_site_fract_z
 _atom_site_occupancy
  F  F0  1  0.00000000  0.00000000  0.00000000  1
  O  O1  1  0.50000000  0.50000000  0.50000000  1
  Y  Y2  1  0.25000000  0.25000000  0.25000000  1
  Al  Al3  1  0.75000000  0.25000000  0.00000000  1
  Li  Li4  1  0.25000000  0.75000000  0.50000000  1
  Li  Li5  1  0.97637125  0.42376184  0.02811557  1
  Li  Li6  1  0.53676090  0.34468695  0.39855345  1
