# generated using pymatgen
data_LiF
_symmetry_space_group_name_H-M   'P 1'
_cell_length_a   22.39695596
_cell_length_b   4.11558602
_cell_length_c   7.81722913
_cell_angle_alpha   90.00000000
_cell_angle_beta   90.00000000
_cell_angle_gamma   90.00000000
_symmetry_Int_Tables_number   1
_chemical_formula_structural   LiF
_chemical_formula_sum   'Li24 F24'
_cell_volume   720.56559430
_cell_formula_units_Z   24
loop_
 _symmetry_equiv_pos_site_id
 _symmetry_equiv_pos_as_xyz
  1  'x, y, z'
loop_
 _atom_site_type_symbol
 _atom_site_label
 _atom_site_symmetry_multiplicity
 _atom_site_fract_x
 _atom_site_fract_y
 _atom_site_fract_z
 _atom_site_occupancy
  F  F0  1  0.88648160  0.89747800  0.29936084  1
  F  F1  1  0.61351840  0.10252200  0.79936084  1
  F  F2  1  0.11351840  0.39747800  0.70063916  1
  F  F3  1  0.38648160  0.60252200  0.20063916  1
  F  F4  1  0.11351840  0.10252200  0.70063916  1
  F  F5  1  0.38648160  0.89747800  0.20063916  1
  F  F6  1  0.88648160  0.60252200  0.29936084  1
  F  F7  1  0.61351840  0.39747800  0.79936084  1
  F  F8  1  0.52085651  0.01986910  0.39798297  1
  F  F9  1  0.97914349  0.98013090  0.89798297  1
  F  F10  1  0.47914349  0.51986910  0.60201703  1
  F  F11  1  0.02085651  0.48013090  0.10201703  1
  F  F12  1  0.47914349  0.98013090  0.60201703  1
  F  F13  1  0.02085651  0.01986910  0.10201703  1
  F  F14  1  0.52085651  0.48013090  0.39798297  1
  F  F15  1  0.97914349  0.51986910  0.89798297  1
  F  F16  1  0.16481737  0.86014454  0.51163429  1
  F  F17  1  0.33518263  0.13985546  0.01163429  1
  F  F18  1  0.83518263  0.36014454  0.48836571  1
  F  F19  1  0.66481737  0.63985546  0.98836571  1
  F  F20  1  0.83518263  0.13985546  0.48836571  1
  F  F21  1  0.66481737  0.86014454  0.98836571  1
  F  F22  1  0.16481737  0.63985546  0.51163429  1
  F  F23  1  0.33518263  0.36014454  0.01163429  1
  Li  Li24  1  0.17439977  0.48947874  0.07851130  1
  Li  Li25  1  0.32560023  -0.48947874  0.57851130  1
  Li  Li26  1  -0.17439977  0.98947874  -0.07851130  1
  Li  Li27  1  0.67439977  0.01052126  0.42148870  1
  Li  Li28  1  -0.17439977  -0.48947874  -0.07851130  1
  Li  Li29  1  0.67439977  0.48947874  0.42148870  1
  Li  Li30  1  0.17439977  0.01052126  0.07851130  1
  Li  Li31  1  0.32560023  0.98947874  0.57851130  1
  Li  Li32  1  0.00000000  0.00000000  0.00000000  1
  Li  Li33  1  0.50000000  0.00000000  0.50000000  1
  Li  Li34  1  0.00000000  0.50000000  0.00000000  1
  Li  Li35  1  0.50000000  0.50000000  0.50000000  1
  Li  Li36  1  0.74820678  0.09433024  0.48570430  1
  Li  Li37  1  0.75179322  0.90566976  0.98570430  1
  Li  Li38  1  0.25179322  0.59433024  0.51429570  1
  Li  Li39  1  0.24820678  0.40566976  0.01429570  1
  Li  Li40  1  0.25179322  0.90566976  0.51429570  1
  Li  Li41  1  0.24820678  0.09433024  0.01429570  1
  Li  Li42  1  0.74820678  0.40566976  0.48570430  1
  Li  Li43  1  0.75179322  0.59433024  0.98570430  1
  Li  Li44  1  0.45380229  0.25000000  0.10741305  1
  Li  Li45  1  0.04619771  0.75000000  0.60741305  1
  Li  Li46  1  0.54619771  0.75000000  0.89258695  1
  Li  Li47  1  0.95380229  0.25000000  0.39258695  1
