# generated using pymatgen
data_LiY2P3
_symmetry_space_group_name_H-M   'P 1'
_cell_length_a   4.05589162
_cell_length_b   4.20767215
_cell_length_c   6.84793685
_cell_angle_alpha   96.51348562
_cell_angle_beta   104.18501755
_cell_angle_gamma   116.16208300
_symmetry_Int_Tables_number   1
_chemical_formula_structural   LiY2P3
_chemical_formula_sum   'Li1 Y2 P3'
_cell_volume   98.34560367
_cell_formula_units_Z   1
loop_
 _symmetry_equiv_pos_site_id
 _symmetry_equiv_pos_as_xyz
  1  'x, y, z'
loop_
 _atom_site_type_symbol
 _atom_site_label
 _atom_site_symmetry_multiplicity
 _atom_site_fract_x
 _atom_site_fract_y
 _atom_site_fract_z
 _atom_site_occupancy
  Y  Y0  1  0.12500000  0.00000000  0.25000000  1
  Y  Y1  1  0.00000000  0.00000000  0.00000000  1
  P  P2  1  0.37500000  0.00000000  0.25000000  1
  P  P3  1  0.25000000  0.25000000  0.25000000  1
  P  P4  1  0.00000000  0.25000000  0.12500000  1
  Li  Li5  1  0.85647000  0.23154621  0.89554898  1
