# generated using pymatgen
data_LiF
_symmetry_space_group_name_H-M   'P 1'
_cell_length_a   5.10090484
_cell_length_b   5.10090484
_cell_length_c   15.08190213
_cell_angle_alpha   90.00000000
_cell_angle_beta   90.00000000
_cell_angle_gamma   120.00000000
_symmetry_Int_Tables_number   1
_chemical_formula_structural   LiF
_chemical_formula_sum   'Li16 F16'
_cell_volume   339.84524146
_cell_formula_units_Z   16
loop_
 _symmetry_equiv_pos_site_id
 _symmetry_equiv_pos_as_xyz
  1  'x, y, z'
loop_
 _atom_site_type_symbol
 _atom_site_label
 _atom_site_symmetry_multiplicity
 _atom_site_fract_x
 _atom_site_fract_y
 _atom_site_fract_z
 _atom_site_occupancy
  F  F0  1  0.45162937  0.92711142  0.40674924  1
  F  F1  1  0.07288858  0.52451795  0.40674924  1
  F  F2  1  0.47548205  0.54837063  0.40674924  1
  F  F3  1  0.07288858  0.54837063  0.59325076  1
  F  F4  1  0.47548205  0.92711142  0.59325076  1
  F  F5  1  0.45162937  0.52451795  0.59325076  1
  F  F6  1  0.00000000  0.00000000  0.38547985  1
  F  F7  1  0.00000000  0.00000000  0.61452015  1
  F  F8  1  0.07831104  0.70822401  0.05588966  1
  F  F9  1  0.29177599  0.37008703  0.05588966  1
  F  F10  1  0.62991297  0.92168896  0.05588966  1
  F  F11  1  0.29177599  0.92168896  0.94411034  1
  F  F12  1  0.62991297  0.70822401  0.94411034  1
  F  F13  1  0.07831104  0.37008703  0.94411034  1
  F  F14  1  0.33333333  0.66666667  0.19324455  1
  F  F15  1  0.33333333  0.66666667  0.80675545  1
  Li  Li16  1  0.33333333  0.66666667  0.59473257  1
  Li  Li17  1  0.33333333  0.66666667  0.40526743  1
  Li  Li18  1  0.15984500  0.75540728  0.74559363  1
  Li  Li19  1  -0.75540728  -0.59556228  0.74559363  1
  Li  Li20  1  0.59556228  -0.15984500  0.74559363  1
  Li  Li21  1  -0.75540728  -0.15984500  -0.74559363  1
  Li  Li22  1  0.59556228  0.75540728  -0.74559363  1
  Li  Li23  1  0.15984500  -0.59556228  -0.74559363  1
  Li  Li24  1  0.33333333  0.66666667  0.50000000  1
  Li  Li25  1  0.66666667  0.33333333  0.67984206  1
  Li  Li26  1  0.66666667  0.33333333  0.32015794  1
  Li  Li27  1  0.33333333  0.66666667  0.00000000  1
  Li  Li28  1  0.66666667  0.33333333  0.50000000  1
  Li  Li29  1  0.66666667  0.33333333  0.00000000  1
  Li  Li30  1  0.66666667  0.33333333  0.19010710  1
  Li  Li31  1  0.66666667  0.33333333  0.80989290  1
