# generated using pymatgen
data_Li2As2P4Se
_symmetry_space_group_name_H-M   'P 1'
_cell_length_a   4.84195455
_cell_length_b   5.07151478
_cell_length_c   6.50402454
_cell_angle_alpha   92.56830290
_cell_angle_beta   96.99087696
_cell_angle_gamma   102.00343106
_symmetry_Int_Tables_number   1
_chemical_formula_structural   Li2As2P4Se
_chemical_formula_sum   'Li2 As2 P4 Se1'
_cell_volume   154.65460837
_cell_formula_units_Z   1
loop_
 _symmetry_equiv_pos_site_id
 _symmetry_equiv_pos_as_xyz
  1  'x, y, z'
loop_
 _atom_site_type_symbol
 _atom_site_label
 _atom_site_symmetry_multiplicity
 _atom_site_fract_x
 _atom_site_fract_y
 _atom_site_fract_z
 _atom_site_occupancy
  Se  Se0  1  0.12500000  0.00000000  0.25000000  1
  P  P1  1  0.00000000  0.00000000  0.00000000  1
  P  P2  1  0.37500000  0.00000000  0.25000000  1
  P  P3  1  0.25000000  0.25000000  0.25000000  1
  P  P4  1  0.00000000  0.25000000  0.12500000  1
  As  As5  1  0.48366587  0.49893255  0.72082997  1
  As  As6  1  0.47519238  0.26716892  0.59222192  1
  Li  Li7  1  0.57439933  0.31330300  0.49109505  1
  Li  Li8  1  0.51564935  0.88981036  0.49386275  1
