# generated using pymatgen
data_LiCaF3
_symmetry_space_group_name_H-M   'P 1'
_cell_length_a   9.43988132
_cell_length_b   9.43988132
_cell_length_c   19.85076695
_cell_angle_alpha   90.00000000
_cell_angle_beta   90.00000000
_cell_angle_gamma   120.00000000
_symmetry_Int_Tables_number   1
_chemical_formula_structural   LiCaF3
_chemical_formula_sum   'Li18 Ca18 F54'
_cell_volume   1531.93730088
_cell_formula_units_Z   18
loop_
 _symmetry_equiv_pos_site_id
 _symmetry_equiv_pos_as_xyz
  1  'x, y, z'
loop_
 _atom_site_type_symbol
 _atom_site_label
 _atom_site_symmetry_multiplicity
 _atom_site_fract_x
 _atom_site_fract_y
 _atom_site_fract_z
 _atom_site_occupancy
  Ca  Ca0  1  0.40636377  0.59363623  0.50000000  1
  Ca  Ca1  1  0.40636377  0.81272754  0.50000000  1
  Ca  Ca2  1  0.18727246  0.59363623  0.50000000  1
  Ca  Ca3  1  0.93725112  0.06274888  0.50000000  1
  Ca  Ca4  1  0.93725112  0.87450223  0.50000000  1
  Ca  Ca5  1  0.12549777  0.06274888  0.50000000  1
  Ca  Ca6  1  0.94996909  0.65269186  0.02205225  1
  Ca  Ca7  1  -0.65269186  0.29727722  0.02205225  1
  Ca  Ca8  1  -0.29727722  -0.94996909  0.02205225  1
  Ca  Ca9  1  -0.65269186  -0.94996909  -0.02205225  1
  Ca  Ca10  1  -0.29727722  0.65269186  -0.02205225  1
  Ca  Ca11  1  0.94996909  0.29727722  -0.02205225  1
  Ca  Ca12  1  0.80968994  0.50317489  0.56400365  1
  Ca  Ca13  1  0.49682511  0.30651505  0.56400365  1
  Ca  Ca14  1  0.69348495  0.19031006  0.56400365  1
  Ca  Ca15  1  0.49682511  0.19031006  0.43599635  1
  Ca  Ca16  1  0.69348495  0.50317489  0.43599635  1
  Ca  Ca17  1  0.80968994  0.30651505  0.43599635  1
  F  F18  1  0.57352143  0.08547079  0.39716783  1
  F  F19  1  0.91452921  0.48805064  0.39716783  1
  F  F20  1  0.51194936  0.42647857  0.39716783  1
  F  F21  1  0.91452921  0.42647857  0.60283217  1
  F  F22  1  0.51194936  0.08547079  0.60283217  1
  F  F23  1  0.57352143  0.48805064  0.60283217  1
  F  F24  1  0.27175764  0.37246001  0.92820664  1
  F  F25  1  0.62753999  0.89929762  0.92820664  1
  F  F26  1  0.10070238  0.72824236  0.92820664  1
  F  F27  1  0.62753999  0.72824236  0.07179336  1
  F  F28  1  0.10070238  0.37246001  0.07179336  1
  F  F29  1  0.27175764  0.89929762  0.07179336  1
  F  F30  1  0.18349943  0.91944620  0.62868118  1
  F  F31  1  0.08055380  0.26405323  0.62868118  1
  F  F32  1  0.73594677  0.81650057  0.62868118  1
  F  F33  1  0.08055380  0.81650057  0.37131882  1
  F  F34  1  0.73594677  0.91944620  0.37131882  1
  F  F35  1  0.18349943  0.26405323  0.37131882  1
  F  F36  1  0.05117835  0.94882165  -0.00000000  1
  F  F37  1  0.05117835  0.10235669  0.00000000  1
  F  F38  1  0.89764331  0.94882165  0.00000000  1
  F  F39  1  0.33333333  0.66666667  0.45762921  1
  F  F40  1  0.33333333  0.66666667  0.54237079  1
  F  F41  1  0.17769941  0.82230059  0.50000000  1
  F  F42  1  0.17769941  0.35539881  0.50000000  1
  F  F43  1  0.64460119  0.82230059  0.50000000  1
  F  F44  1  0.04272809  0.38155212  0.32133560  1
  F  F45  1  0.61844788  0.66117596  0.32133560  1
  F  F46  1  0.33882404  0.95727191  0.32133560  1
  F  F47  1  0.61844788  0.95727191  0.67866440  1
  F  F48  1  0.33882404  0.38155212  0.67866440  1
  F  F49  1  0.04272809  0.66117596  0.67866440  1
  F  F50  1  0.71163826  0.02110820  0.88235223  1
  F  F51  1  0.97889180  0.69053006  0.88235223  1
  F  F52  1  0.30946994  0.28836174  0.88235223  1
  F  F53  1  0.97889180  0.28836174  0.11764777  1
  F  F54  1  0.30946994  0.02110820  0.11764777  1
  F  F55  1  0.71163826  0.69053006  0.11764777  1
  F  F56  1  0.90880879  0.80256384  0.28918597  1
  F  F57  1  0.19743616  0.10624495  0.28918597  1
  F  F58  1  0.89375505  0.09119121  0.28918597  1
  F  F59  1  0.19743616  0.09119121  0.71081403  1
  F  F60  1  0.89375505  0.80256384  0.71081403  1
  F  F61  1  0.90880879  0.10624495  0.71081403  1
  F  F62  1  0.55350506  0.47647545  0.87481546  1
  F  F63  1  0.52352455  0.07702961  0.87481546  1
  F  F64  1  0.92297039  0.44649494  0.87481546  1
  F  F65  1  0.52352455  0.44649494  0.12518454  1
  F  F66  1  0.92297039  0.47647545  0.12518454  1
  F  F67  1  0.55350506  0.07702961  0.12518454  1
  F  F68  1  0.00000000  0.00000000  0.00000000  1
  F  F69  1  0.24364773  0.75635227  0.00000000  1
  F  F70  1  0.24364773  0.48729545  0.00000000  1
  F  F71  1  0.51270455  0.75635227  -0.00000000  1
  Li  Li72  1  0.06969700  0.20698976  0.07554131  1
  Li  Li73  1  0.79301024  0.86270724  0.07554131  1
  Li  Li74  1  0.13729276  0.93030300  0.07554131  1
  Li  Li75  1  0.79301024  0.93030300  0.92445869  1
  Li  Li76  1  0.13729276  0.20698976  0.92445869  1
  Li  Li77  1  0.06969700  0.86270724  0.92445869  1
  Li  Li78  1  0.78043763  0.12268582  0.66813319  1
  Li  Li79  1  0.87731418  0.65775181  0.66813319  1
  Li  Li80  1  0.34224819  0.21956237  0.66813319  1
  Li  Li81  1  0.87731418  0.21956237  0.33186681  1
  Li  Li82  1  0.34224819  0.12268582  0.33186681  1
  Li  Li83  1  0.78043763  0.65775181  0.33186681  1
  Li  Li84  1  0.51387472  0.48612528  0.50000000  1
  Li  Li85  1  0.51387472  0.02774944  0.50000000  1
  Li  Li86  1  0.97225056  0.48612528  0.50000000  1
  Li  Li87  1  0.17955927  0.82044073  0.00000000  1
  Li  Li88  1  0.17955927  0.35911855  0.00000000  1
  Li  Li89  1  0.64088145  0.82044073  0.00000000  1
