# generated using pymatgen
data_LiF
_symmetry_space_group_name_H-M   'P 1'
_cell_length_a   9.16579246
_cell_length_b   6.17405042
_cell_length_c   6.42387796
_cell_angle_alpha   90.00000000
_cell_angle_beta   90.00000000
_cell_angle_gamma   90.00000000
_symmetry_Int_Tables_number   1
_chemical_formula_structural   LiF
_chemical_formula_sum   'Li18 F18'
_cell_volume   363.52767005
_cell_formula_units_Z   18
loop_
 _symmetry_equiv_pos_site_id
 _symmetry_equiv_pos_as_xyz
  1  'x, y, z'
loop_
 _atom_site_type_symbol
 _atom_site_label
 _atom_site_symmetry_multiplicity
 _atom_site_fract_x
 _atom_site_fract_y
 _atom_site_fract_z
 _atom_site_occupancy
  F  F0  1  0.24831549  0.45027758  0.50000000  1
  F  F1  1  0.75168451  0.54972242  0.50000000  1
  F  F2  1  0.25168451  0.95027758  0.50000000  1
  F  F3  1  0.74831549  0.04972242  0.50000000  1
  F  F4  1  0.00000000  0.50000000  0.10839763  1
  F  F5  1  0.50000000  0.00000000  0.89160237  1
  F  F6  1  0.00000000  0.50000000  0.89160237  1
  F  F7  1  0.50000000  0.00000000  0.10839763  1
  F  F8  1  0.82156743  0.22784003  0.27230809  1
  F  F9  1  0.17843257  0.77215997  0.27230809  1
  F  F10  1  0.67843257  0.72784003  0.72769191  1
  F  F11  1  0.32156743  0.27215997  0.72769191  1
  F  F12  1  0.17843257  0.77215997  0.72769191  1
  F  F13  1  0.82156743  0.22784003  0.72769191  1
  F  F14  1  0.32156743  0.27215997  0.27230809  1
  F  F15  1  0.67843257  0.72784003  0.27230809  1
  F  F16  1  0.00000000  0.50000000  0.00000000  1
  F  F17  1  0.50000000  0.00000000  0.00000000  1
  Li  Li18  1  0.61936153  0.24104601  0.50000000  1
  Li  Li19  1  0.38063847  0.75895399  0.50000000  1
  Li  Li20  1  0.88063847  0.74104601  0.50000000  1
  Li  Li21  1  0.11936153  0.25895399  0.50000000  1
  Li  Li22  1  0.02779214  0.88921486  0.80052288  1
  Li  Li23  1  -0.02779214  -0.88921486  0.80052288  1
  Li  Li24  1  0.47220786  1.38921486  -0.80052288  1
  Li  Li25  1  0.52779214  -0.38921486  -0.80052288  1
  Li  Li26  1  -0.02779214  -0.88921486  -0.80052288  1
  Li  Li27  1  0.02779214  0.88921486  -0.80052288  1
  Li  Li28  1  0.52779214  -0.38921486  0.80052288  1
  Li  Li29  1  0.47220786  1.38921486  0.80052288  1
  Li  Li30  1  0.00000000  0.50000000  0.50000000  1
  Li  Li31  1  0.50000000  0.00000000  0.50000000  1
  Li  Li32  1  0.01822485  0.86734770  0.50000000  1
  Li  Li33  1  0.98177515  0.13265230  0.50000000  1
  Li  Li34  1  0.48177515  0.36734770  0.50000000  1
  Li  Li35  1  0.51822485  0.63265230  0.50000000  1
