# generated using pymatgen
data_LiF
_symmetry_space_group_name_H-M   'P 1'
_cell_length_a   8.48875497
_cell_length_b   8.48875497
_cell_length_c   19.23928439
_cell_angle_alpha   90.00000000
_cell_angle_beta   90.00000000
_cell_angle_gamma   120.00000000
_symmetry_Int_Tables_number   1
_chemical_formula_structural   LiF
_chemical_formula_sum   'Li54 F54'
_cell_volume   1200.62544144
_cell_formula_units_Z   54
loop_
 _symmetry_equiv_pos_site_id
 _symmetry_equiv_pos_as_xyz
  1  'x, y, z'
loop_
 _atom_site_type_symbol
 _atom_site_label
 _atom_site_symmetry_multiplicity
 _atom_site_fract_x
 _atom_site_fract_y
 _atom_site_fract_z
 _atom_site_occupancy
  F  F0  1  0.09282095  0.00000000  0.25000000  1
  F  F1  1  0.00000000  0.09282095  0.25000000  1
  F  F2  1  0.90717905  0.90717905  0.25000000  1
  F  F3  1  0.90717905  0.00000000  0.75000000  1
  F  F4  1  0.00000000  0.90717905  0.75000000  1
  F  F5  1  0.09282095  0.09282095  0.75000000  1
  F  F6  1  0.75948761  0.33333333  0.58333333  1
  F  F7  1  0.66666667  0.42615428  0.58333333  1
  F  F8  1  0.57384572  0.24051239  0.58333333  1
  F  F9  1  0.57384572  0.33333333  0.08333333  1
  F  F10  1  0.66666667  0.24051239  0.08333333  1
  F  F11  1  0.75948761  0.42615428  0.08333333  1
  F  F12  1  0.42615428  0.66666667  0.91666667  1
  F  F13  1  0.33333333  0.75948761  0.91666667  1
  F  F14  1  0.24051239  0.57384572  0.91666667  1
  F  F15  1  0.24051239  0.66666667  0.41666667  1
  F  F16  1  0.33333333  0.57384572  0.41666667  1
  F  F17  1  0.42615428  0.75948761  0.41666667  1
  F  F18  1  0.12509409  0.22924927  0.97845891  1
  F  F19  1  0.77075073  0.89584481  0.97845891  1
  F  F20  1  0.10415519  0.87490591  0.97845891  1
  F  F21  1  0.22924927  0.12509409  0.52154109  1
  F  F22  1  0.89584481  0.77075073  0.52154109  1
  F  F23  1  0.87490591  0.10415519  0.52154109  1
  F  F24  1  0.87490591  0.77075073  0.02154109  1
  F  F25  1  0.22924927  0.10415519  0.02154109  1
  F  F26  1  0.89584481  0.12509409  0.02154109  1
  F  F27  1  0.77075073  0.87490591  0.47845891  1
  F  F28  1  0.10415519  0.22924927  0.47845891  1
  F  F29  1  0.12509409  0.89584481  0.47845891  1
  F  F30  1  0.79176075  0.56258261  0.31179225  1
  F  F31  1  0.43741739  0.22917815  0.31179225  1
  F  F32  1  0.77082185  0.20823925  0.31179225  1
  F  F33  1  0.89591594  0.45842742  0.85487442  1
  F  F34  1  0.56251148  0.10408406  0.85487442  1
  F  F35  1  0.54157258  0.43748852  0.85487442  1
  F  F36  1  0.54157258  0.10408406  0.35487442  1
  F  F37  1  0.89591594  0.43748852  0.35487442  1
  F  F38  1  0.56251148  0.45842742  0.35487442  1
  F  F39  1  0.43741739  0.20823925  0.81179225  1
  F  F40  1  0.77082185  0.56258261  0.81179225  1
  F  F41  1  0.79176075  0.22917815  0.81179225  1
  F  F42  1  0.45842742  0.89591594  0.64512558  1
  F  F43  1  0.10408406  0.56251148  0.64512558  1
  F  F44  1  0.43748852  0.54157258  0.64512558  1
  F  F45  1  0.56258261  0.79176075  0.18820775  1
  F  F46  1  0.22917815  0.43741739  0.18820775  1
  F  F47  1  0.20823925  0.77082185  0.18820775  1
  F  F48  1  0.20823925  0.43741739  0.68820775  1
  F  F49  1  0.56258261  0.77082185  0.68820775  1
  F  F50  1  0.22917815  0.79176075  0.68820775  1
  F  F51  1  0.10408406  0.54157258  0.14512558  1
  F  F52  1  0.43748852  0.89591594  0.14512558  1
  F  F53  1  0.45842742  0.56251148  0.14512558  1
  Li  Li54  1  0.21911965  0.53667108  0.64005196  1
  Li  Li55  1  -0.53667108  -0.31755143  0.64005196  1
  Li  Li56  1  0.31755143  -0.21911965  0.64005196  1
  Li  Li57  1  0.53667108  0.21911965  -0.14005196  1
  Li  Li58  1  -0.31755143  -0.53667108  -0.14005196  1
  Li  Li59  1  -0.21911965  0.31755143  -0.14005196  1
  Li  Li60  1  -0.21911965  -0.53667108  -0.64005196  1
  Li  Li61  1  0.53667108  0.31755143  -0.64005196  1
  Li  Li62  1  -0.31755143  0.21911965  -0.64005196  1
  Li  Li63  1  -0.53667108  -0.21911965  1.14005196  1
  Li  Li64  1  0.31755143  0.53667108  1.14005196  1
  Li  Li65  1  0.21911965  -0.31755143  1.14005196  1
  Li  Li66  1  0.88578632  0.87000441  0.97338529  1
  Li  Li67  1  0.12999559  0.01578191  0.97338529  1
  Li  Li68  1  0.98421809  0.11421368  0.97338529  1
  Li  Li69  1  1.20333774  0.55245298  0.19328138  1
  Li  Li70  1  0.34911524  -0.20333774  0.19328138  1
  Li  Li71  1  0.44754702  0.65088476  0.19328138  1
  Li  Li72  1  0.44754702  -0.20333774  -0.30671862  1
  Li  Li73  1  1.20333774  0.65088476  -0.30671862  1
  Li  Li74  1  0.34911524  0.55245298  -0.30671862  1
  Li  Li75  1  0.12999559  0.11421368  1.47338529  1
  Li  Li76  1  0.98421809  0.87000441  1.47338529  1
  Li  Li77  1  0.88578632  0.01578191  1.47338529  1
  Li  Li78  1  0.55245298  1.20333774  1.30671862  1
  Li  Li79  1  -0.20333774  0.34911524  1.30671862  1
  Li  Li80  1  0.65088476  0.44754702  1.30671862  1
  Li  Li81  1  0.87000441  0.88578632  0.52661471  1
  Li  Li82  1  0.01578191  0.12999559  0.52661471  1
  Li  Li83  1  0.11421368  0.98421809  0.52661471  1
  Li  Li84  1  0.11421368  0.12999559  0.02661471  1
  Li  Li85  1  0.87000441  0.98421809  0.02661471  1
  Li  Li86  1  0.01578191  0.88578632  0.02661471  1
  Li  Li87  1  -0.20333774  0.44754702  1.80671862  1
  Li  Li88  1  0.65088476  1.20333774  1.80671862  1
  Li  Li89  1  0.55245298  0.34911524  1.80671862  1
  Li  Li90  1  0.50000000  0.00000000  0.00000000  1
  Li  Li91  1  0.00000000  0.50000000  0.00000000  1
  Li  Li92  1  0.50000000  0.50000000  0.00000000  1
  Li  Li93  1  0.00000000  0.50000000  0.50000000  1
  Li  Li94  1  0.50000000  0.00000000  0.50000000  1
  Li  Li95  1  0.50000000  0.50000000  0.50000000  1
  Li  Li96  1  0.16666667  0.33333333  0.33333333  1
  Li  Li97  1  0.66666667  0.83333333  0.33333333  1
  Li  Li98  1  0.16666667  0.83333333  0.33333333  1
  Li  Li99  1  0.66666667  0.83333333  0.83333333  1
  Li  Li100  1  0.16666667  0.33333333  0.83333333  1
  Li  Li101  1  0.16666667  0.83333333  0.83333333  1
  Li  Li102  1  0.83333333  0.66666667  0.66666667  1
  Li  Li103  1  0.33333333  0.16666667  0.66666667  1
  Li  Li104  1  0.83333333  0.16666667  0.66666667  1
  Li  Li105  1  0.33333333  0.16666667  0.16666667  1
  Li  Li106  1  0.83333333  0.66666667  0.16666667  1
  Li  Li107  1  0.83333333  0.16666667  0.16666667  1
