# generated using pymatgen
data_LiF
_symmetry_space_group_name_H-M   'P 1'
_cell_length_a   10.21346867
_cell_length_b   6.65859690
_cell_length_c   11.76607226
_cell_angle_alpha   90.00000000
_cell_angle_beta   90.00000000
_cell_angle_gamma   90.00000000
_symmetry_Int_Tables_number   1
_chemical_formula_structural   LiF
_chemical_formula_sum   'Li26 F26'
_cell_volume   800.17963923
_cell_formula_units_Z   26
loop_
 _symmetry_equiv_pos_site_id
 _symmetry_equiv_pos_as_xyz
  1  'x, y, z'
loop_
 _atom_site_type_symbol
 _atom_site_label
 _atom_site_symmetry_multiplicity
 _atom_site_fract_x
 _atom_site_fract_y
 _atom_site_fract_z
 _atom_site_occupancy
  F  F0  1  0.55474090  0.95015465  0.42894396  1
  F  F1  1  0.44525910  0.04984535  0.42894396  1
  F  F2  1  0.94525910  0.45015465  0.07105604  1
  F  F3  1  0.05474090  0.54984535  0.07105604  1
  F  F4  1  0.44525910  0.04984535  0.57105604  1
  F  F5  1  0.55474090  0.95015465  0.57105604  1
  F  F6  1  0.05474090  0.54984535  0.92894396  1
  F  F7  1  0.94525910  0.45015465  0.92894396  1
  F  F8  1  0.00000000  0.50000000  0.50000000  1
  F  F9  1  0.50000000  0.00000000  0.00000000  1
  F  F10  1  0.68051904  0.33007039  0.76683874  1
  F  F11  1  0.31948096  0.66992961  0.76683874  1
  F  F12  1  0.81948096  0.83007039  0.73316126  1
  F  F13  1  0.18051904  0.16992961  0.73316126  1
  F  F14  1  0.31948096  0.66992961  0.23316126  1
  F  F15  1  0.68051904  0.33007039  0.23316126  1
  F  F16  1  0.18051904  0.16992961  0.26683874  1
  F  F17  1  0.81948096  0.83007039  0.26683874  1
  F  F18  1  0.63217899  0.56922079  0.04909516  1
  F  F19  1  0.36782101  0.43077921  0.04909516  1
  F  F20  1  0.86782101  0.06922079  0.45090484  1
  F  F21  1  0.13217899  0.93077921  0.45090484  1
  F  F22  1  0.36782101  0.43077921  0.95090484  1
  F  F23  1  0.63217899  0.56922079  0.95090484  1
  F  F24  1  0.13217899  0.93077921  0.54909516  1
  F  F25  1  0.86782101  0.06922079  0.54909516  1
  Li  Li26  1  0.52178054  0.19783882  0.27211090  1
  Li  Li27  1  -0.52178054  -0.19783882  0.27211090  1
  Li  Li28  1  -0.02178054  0.69783882  0.22788910  1
  Li  Li29  1  1.02178054  0.30216118  0.22788910  1
  Li  Li30  1  -0.52178054  -0.19783882  -0.27211090  1
  Li  Li31  1  0.52178054  0.19783882  -0.27211090  1
  Li  Li32  1  1.02178054  0.30216118  0.77211090  1
  Li  Li33  1  -0.02178054  0.69783882  0.77211090  1
  Li  Li34  1  0.23777635  0.36447188  0.17769500  1
  Li  Li35  1  0.76222365  0.63552812  0.17769500  1
  Li  Li36  1  0.26222365  0.86447188  0.32230500  1
  Li  Li37  1  0.73777635  0.13552812  0.32230500  1
  Li  Li38  1  0.76222365  0.63552812  0.82230500  1
  Li  Li39  1  0.23777635  0.36447188  0.82230500  1
  Li  Li40  1  0.73777635  0.13552812  0.67769500  1
  Li  Li41  1  0.26222365  0.86447188  0.67769500  1
  Li  Li42  1  0.00000000  0.50000000  0.67458523  1
  Li  Li43  1  0.50000000  0.00000000  0.82541477  1
  Li  Li44  1  0.00000000  0.50000000  0.32541477  1
  Li  Li45  1  0.50000000  0.00000000  0.17458523  1
  Li  Li46  1  0.00000000  0.00000000  0.50000000  1
  Li  Li47  1  0.50000000  0.50000000  0.00000000  1
  Li  Li48  1  0.00000000  0.00000000  0.00000000  1
  Li  Li49  1  0.50000000  0.50000000  0.50000000  1
  Li  Li50  1  0.00000000  0.50000000  0.00000000  1
  Li  Li51  1  0.50000000  0.00000000  0.50000000  1
