# generated using pymatgen
data_LiF
_symmetry_space_group_name_H-M   'P 1'
_cell_length_a   8.27155320
_cell_length_b   8.27155320
_cell_length_c   13.79283677
_cell_angle_alpha   90.00000000
_cell_angle_beta   90.00000000
_cell_angle_gamma   90.00000000
_symmetry_Int_Tables_number   1
_chemical_formula_structural   LiF
_chemical_formula_sum   'Li32 F32'
_cell_volume   943.68647473
_cell_formula_units_Z   32
loop_
 _symmetry_equiv_pos_site_id
 _symmetry_equiv_pos_as_xyz
  1  'x, y, z'
loop_
 _atom_site_type_symbol
 _atom_site_label
 _atom_site_symmetry_multiplicity
 _atom_site_fract_x
 _atom_site_fract_y
 _atom_site_fract_z
 _atom_site_occupancy
  F  F0  1  0.79903371  0.61185696  0.80594660  1
  F  F1  1  -0.29903371  -0.61185696  1.30594660  1
  F  F2  1  -0.36185696  1.54903371  1.05594660  1
  F  F3  1  0.86185696  -0.54903371  1.55594660  1
  F  F4  1  -0.29903371  0.61185696  -0.80594660  1
  F  F5  1  0.79903371  -0.61185696  -0.30594660  1
  F  F6  1  0.86185696  1.54903371  -0.05594660  1
  F  F7  1  -0.36185696  -0.54903371  -0.55594660  1
  F  F8  1  -0.79903371  -0.61185696  -0.80594660  1
  F  F9  1  1.29903371  0.61185696  -0.30594660  1
  F  F10  1  1.36185696  -0.54903371  -0.05594660  1
  F  F11  1  0.13814304  1.54903371  -0.55594660  1
  F  F12  1  1.29903371  -0.61185696  0.80594660  1
  F  F13  1  -0.79903371  0.61185696  1.30594660  1
  F  F14  1  0.13814304  -0.54903371  1.05594660  1
  F  F15  1  1.36185696  1.54903371  1.55594660  1
  F  F16  1  1.29903371  1.11185696  1.30594660  1
  F  F17  1  0.20096629  -0.11185696  1.80594660  1
  F  F18  1  0.13814304  2.04903371  1.55594660  1
  F  F19  1  1.36185696  -0.04903371  2.05594660  1
  F  F20  1  0.20096629  1.11185696  -0.30594660  1
  F  F21  1  1.29903371  -0.11185696  0.19405340  1
  F  F22  1  1.36185696  2.04903371  0.44405340  1
  F  F23  1  0.13814304  -0.04903371  -0.05594660  1
  F  F24  1  -0.29903371  -0.11185696  -0.30594660  1
  F  F25  1  1.79903371  1.11185696  0.19405340  1
  F  F26  1  1.86185696  -0.04903371  0.44405340  1
  F  F27  1  0.63814304  2.04903371  -0.05594660  1
  F  F28  1  1.79903371  -0.11185696  1.30594660  1
  F  F29  1  -0.29903371  1.11185696  1.80594660  1
  F  F30  1  0.63814304  -0.04903371  1.55594660  1
  F  F31  1  1.86185696  2.04903371  2.05594660  1
  Li  Li32  1  0.00000000  0.25000000  0.12500000  1
  Li  Li33  1  0.00000000  0.75000000  0.37500000  1
  Li  Li34  1  0.00000000  0.75000000  0.87500000  1
  Li  Li35  1  0.00000000  0.25000000  0.62500000  1
  Li  Li36  1  0.50000000  0.75000000  0.62500000  1
  Li  Li37  1  0.50000000  0.25000000  0.87500000  1
  Li  Li38  1  0.50000000  0.25000000  0.37500000  1
  Li  Li39  1  0.50000000  0.75000000  0.12500000  1
  Li  Li40  1  0.53189795  -0.00000000  0.25000000  1
  Li  Li41  1  0.96810205  0.00000000  0.75000000  1
  Li  Li42  1  0.25000000  0.28189795  0.50000000  1
  Li  Li43  1  0.25000000  0.71810205  0.00000000  1
  Li  Li44  1  0.46810205  0.00000000  0.75000000  1
  Li  Li45  1  0.03189795  -0.00000000  0.25000000  1
  Li  Li46  1  0.75000000  0.71810205  0.50000000  1
  Li  Li47  1  0.75000000  0.28189795  0.00000000  1
  Li  Li48  1  0.03189795  0.50000000  0.75000000  1
  Li  Li49  1  0.46810205  0.50000000  0.25000000  1
  Li  Li50  1  0.75000000  0.78189795  0.00000000  1
  Li  Li51  1  0.75000000  0.21810205  0.50000000  1
  Li  Li52  1  0.96810205  0.50000000  0.25000000  1
  Li  Li53  1  0.53189795  0.50000000  0.75000000  1
  Li  Li54  1  0.25000000  0.21810205  -0.00000000  1
  Li  Li55  1  0.25000000  0.78189795  0.50000000  1
  Li  Li56  1  0.00000000  0.25000000  0.37500000  1
  Li  Li57  1  0.00000000  0.75000000  0.62500000  1
  Li  Li58  1  0.50000000  0.25000000  0.62500000  1
  Li  Li59  1  0.50000000  0.75000000  0.37500000  1
  Li  Li60  1  0.50000000  0.75000000  0.87500000  1
  Li  Li61  1  0.50000000  0.25000000  0.12500000  1
  Li  Li62  1  0.00000000  0.75000000  0.12500000  1
  Li  Li63  1  0.00000000  0.25000000  0.87500000  1
