# generated using pymatgen
data_Li3YP4
_symmetry_space_group_name_H-M   'P 1'
_cell_length_a   5.46436216
_cell_length_b   5.66115947
_cell_length_c   7.48943048
_cell_angle_alpha   94.53688967
_cell_angle_beta   99.88040250
_cell_angle_gamma   108.22288265
_symmetry_Int_Tables_number   1
_chemical_formula_structural   Li3YP4
_chemical_formula_sum   'Li3 Y1 P4'
_cell_volume   214.60624194
_cell_formula_units_Z   1
loop_
 _symmetry_equiv_pos_site_id
 _symmetry_equiv_pos_as_xyz
  1  'x, y, z'
loop_
 _atom_site_type_symbol
 _atom_site_label
 _atom_site_symmetry_multiplicity
 _atom_site_fract_x
 _atom_site_fract_y
 _atom_site_fract_z
 _atom_site_occupancy
  Y  Y0  1  0.00000000  0.00000000  0.00000000  1
  P  P1  1  0.50000000  0.50000000  0.50000000  1
  P  P2  1  0.50000000  0.50000000  0.00000000  1
  P  P3  1  0.50000000  0.00000000  0.50000000  1
  P  P4  1  0.00000000  0.50000000  0.50000000  1
  Li  Li5  1  0.62235594  0.77600263  0.68342036  1
  Li  Li6  1  0.95330675  0.30140218  0.45730321  1
  Li  Li7  1  0.17506230  0.38745936  0.69919597  1
