# generated using pymatgen
data_Li3YAlF
_symmetry_space_group_name_H-M   'P 1'
_cell_length_a   3.26192712
_cell_length_b   3.14360155
_cell_length_c   5.86388547
_cell_angle_alpha   105.57413059
_cell_angle_beta   105.33647512
_cell_angle_gamma   108.05755462
_symmetry_Int_Tables_number   1
_chemical_formula_structural   Li3YAlF
_chemical_formula_sum   'Li3 Y1 Al1 F1'
_cell_volume   50.94554151
_cell_formula_units_Z   1
loop_
 _symmetry_equiv_pos_site_id
 _symmetry_equiv_pos_as_xyz
  1  'x, y, z'
loop_
 _atom_site_type_symbol
 _atom_site_label
 _atom_site_symmetry_multiplicity
 _atom_site_fract_x
 _atom_site_fract_y
 _atom_site_fract_z
 _atom_site_occupancy
  F  F0  1  0.00000000  0.00000000  0.00000000  1
  Y  Y1  1  0.50000000  0.50000000  0.50000000  1
  Al  Al2  1  0.25000000  0.25000000  0.25000000  1
  Li  Li3  1  0.75000000  0.25000000  0.00000000  1
  Li  Li4  1  0.25000000  0.75000000  0.50000000  1
  Li  Li5  1  0.60828427  0.03353159  0.39718904  1
