# generated using pymatgen
data_LiF
_symmetry_space_group_name_H-M   'P 1'
_cell_length_a   4.25322306
_cell_length_b   13.41486396
_cell_length_c   12.33764852
_cell_angle_alpha   90.00000000
_cell_angle_beta   90.00000000
_cell_angle_gamma   90.00000000
_symmetry_Int_Tables_number   1
_chemical_formula_structural   LiF
_chemical_formula_sum   'Li24 F24'
_cell_volume   703.94191646
_cell_formula_units_Z   24
loop_
 _symmetry_equiv_pos_site_id
 _symmetry_equiv_pos_as_xyz
  1  'x, y, z'
loop_
 _atom_site_type_symbol
 _atom_site_label
 _atom_site_symmetry_multiplicity
 _atom_site_fract_x
 _atom_site_fract_y
 _atom_site_fract_z
 _atom_site_occupancy
  F  F0  1  0.39163026  0.98097729  0.29260941  1
  F  F1  1  0.10836974  0.01902271  0.79260941  1
  F  F2  1  0.60836974  0.48097729  0.70739059  1
  F  F3  1  0.89163026  0.51902271  0.20739059  1
  F  F4  1  0.60836974  0.01902271  0.70739059  1
  F  F5  1  0.89163026  0.98097729  0.20739059  1
  F  F6  1  0.39163026  0.51902271  0.29260941  1
  F  F7  1  0.10836974  0.48097729  0.79260941  1
  F  F8  1  0.00000000  0.00000000  0.00000000  1
  F  F9  1  0.50000000  0.00000000  0.50000000  1
  F  F10  1  0.00000000  0.50000000  0.00000000  1
  F  F11  1  0.50000000  0.50000000  0.50000000  1
  F  F12  1  0.30617933  0.25000000  0.37145114  1
  F  F13  1  0.19382067  0.75000000  0.87145114  1
  F  F14  1  0.69382067  0.75000000  0.62854886  1
  F  F15  1  0.80617933  0.25000000  0.12854886  1
  F  F16  1  0.51787343  0.62602434  0.80917173  1
  F  F17  1  0.98212657  0.37397566  0.30917173  1
  F  F18  1  0.48212657  0.12602434  0.19082827  1
  F  F19  1  0.01787343  0.87397566  0.69082827  1
  F  F20  1  0.48212657  0.37397566  0.19082827  1
  F  F21  1  0.01787343  0.62602434  0.69082827  1
  F  F22  1  0.51787343  0.87397566  0.80917173  1
  F  F23  1  0.98212657  0.12602434  0.30917173  1
  Li  Li24  1  0.45309592  0.25000000  0.14523793  1
  Li  Li25  1  0.04690408  0.75000000  0.64523793  1
  Li  Li26  1  0.54690408  0.75000000  0.85476207  1
  Li  Li27  1  0.95309592  0.25000000  0.35476207  1
  Li  Li28  1  0.33283634  0.95218327  0.90794037  1
  Li  Li29  1  0.16716366  -0.95218327  1.40794037  1
  Li  Li30  1  -0.33283634  1.45218327  -0.90794037  1
  Li  Li31  1  0.83283634  -0.45218327  -0.40794037  1
  Li  Li32  1  -0.33283634  -0.95218327  -0.90794037  1
  Li  Li33  1  0.83283634  0.95218327  -0.40794037  1
  Li  Li34  1  0.33283634  -0.45218327  0.90794037  1
  Li  Li35  1  0.16716366  1.45218327  1.40794037  1
  Li  Li36  1  0.58066174  0.68204630  0.36350762  1
  Li  Li37  1  0.91933826  0.31795370  0.86350762  1
  Li  Li38  1  0.41933826  0.18204630  0.63649238  1
  Li  Li39  1  0.08066174  0.81795370  0.13649238  1
  Li  Li40  1  0.41933826  0.31795370  0.63649238  1
  Li  Li41  1  0.08066174  0.68204630  0.13649238  1
  Li  Li42  1  0.58066174  0.81795370  0.36350762  1
  Li  Li43  1  0.91933826  0.18204630  0.86350762  1
  Li  Li44  1  0.00000000  0.00000000  0.50000000  1
  Li  Li45  1  0.50000000  0.00000000  -0.00000000  1
  Li  Li46  1  0.00000000  0.50000000  0.50000000  1
  Li  Li47  1  0.50000000  0.50000000  -0.00000000  1
