# generated using pymatgen
data_LiF
_symmetry_space_group_name_H-M   'P 1'
_cell_length_a   11.99593665
_cell_length_b   6.13234968
_cell_length_c   9.03379185
_cell_angle_alpha   90.00000000
_cell_angle_beta   90.00000000
_cell_angle_gamma   90.00000000
_symmetry_Int_Tables_number   1
_chemical_formula_structural   LiF
_chemical_formula_sum   'Li24 F24'
_cell_volume   664.55534364
_cell_formula_units_Z   24
loop_
 _symmetry_equiv_pos_site_id
 _symmetry_equiv_pos_as_xyz
  1  'x, y, z'
loop_
 _atom_site_type_symbol
 _atom_site_label
 _atom_site_symmetry_multiplicity
 _atom_site_fract_x
 _atom_site_fract_y
 _atom_site_fract_z
 _atom_site_occupancy
  F  F0  1  0.00000000  0.00000000  0.00000000  1
  F  F1  1  0.50000000  0.00000000  0.50000000  1
  F  F2  1  0.00000000  0.50000000  0.00000000  1
  F  F3  1  0.50000000  0.50000000  0.50000000  1
  F  F4  1  0.63452631  0.19446375  0.32791843  1
  F  F5  1  0.86547369  0.80553625  0.82791843  1
  F  F6  1  0.36547369  0.69446375  0.67208157  1
  F  F7  1  0.13452631  0.30553625  0.17208157  1
  F  F8  1  0.36547369  0.80553625  0.67208157  1
  F  F9  1  0.13452631  0.19446375  0.17208157  1
  F  F10  1  0.63452631  0.30553625  0.32791843  1
  F  F11  1  0.86547369  0.69446375  0.82791843  1
  F  F12  1  0.61431753  0.35258779  0.26230947  1
  F  F13  1  0.88568247  0.64741221  0.76230947  1
  F  F14  1  0.38568247  0.85258779  0.73769053  1
  F  F15  1  0.11431753  0.14741221  0.23769053  1
  F  F16  1  0.38568247  0.64741221  0.73769053  1
  F  F17  1  0.11431753  0.35258779  0.23769053  1
  F  F18  1  0.61431753  0.14741221  0.26230947  1
  F  F19  1  0.88568247  0.85258779  0.76230947  1
  F  F20  1  0.82994069  0.25000000  0.67596246  1
  F  F21  1  0.67005931  0.75000000  0.17596246  1
  F  F22  1  0.17005931  0.75000000  0.32403754  1
  F  F23  1  0.32994069  0.25000000  0.82403754  1
  Li  Li24  1  0.95761162  0.93315884  0.45151769  1
  Li  Li25  1  -0.45761162  -0.93315884  0.95151769  1
  Li  Li26  1  -0.95761162  1.43315884  -0.45151769  1
  Li  Li27  1  1.45761162  -0.43315884  0.04848231  1
  Li  Li28  1  -0.95761162  -0.93315884  -0.45151769  1
  Li  Li29  1  1.45761162  0.93315884  0.04848231  1
  Li  Li30  1  0.95761162  -0.43315884  0.45151769  1
  Li  Li31  1  -0.45761162  1.43315884  0.95151769  1
  Li  Li32  1  0.56653034  0.25000000  0.44746011  1
  Li  Li33  1  0.93346966  0.75000000  0.94746011  1
  Li  Li34  1  0.43346966  0.75000000  0.55253989  1
  Li  Li35  1  0.06653034  0.25000000  0.05253989  1
  Li  Li36  1  0.72838655  0.61441094  0.82809943  1
  Li  Li37  1  0.77161345  0.38558906  0.32809943  1
  Li  Li38  1  0.27161345  0.11441094  0.17190057  1
  Li  Li39  1  0.22838655  0.88558906  0.67190057  1
  Li  Li40  1  0.27161345  0.38558906  0.17190057  1
  Li  Li41  1  0.22838655  0.61441094  0.67190057  1
  Li  Li42  1  0.72838655  0.88558906  0.82809943  1
  Li  Li43  1  0.77161345  0.11441094  0.32809943  1
  Li  Li44  1  0.00068444  0.25000000  0.41820537  1
  Li  Li45  1  0.49931556  0.75000000  0.91820537  1
  Li  Li46  1  0.99931556  0.75000000  0.58179463  1
  Li  Li47  1  0.50068444  0.25000000  0.08179463  1
