# generated using pymatgen
data_LiCaF3
_symmetry_space_group_name_H-M   'P 1'
_cell_length_a   11.39689449
_cell_length_b   8.53381537
_cell_length_c   16.30725978
_cell_angle_alpha   90.00000000
_cell_angle_beta   90.00000000
_cell_angle_gamma   90.00000000
_symmetry_Int_Tables_number   1
_chemical_formula_structural   LiCaF3
_chemical_formula_sum   'Li18 Ca18 F54'
_cell_volume   1586.02767190
_cell_formula_units_Z   18
loop_
 _symmetry_equiv_pos_site_id
 _symmetry_equiv_pos_as_xyz
  1  'x, y, z'
loop_
 _atom_site_type_symbol
 _atom_site_label
 _atom_site_symmetry_multiplicity
 _atom_site_fract_x
 _atom_site_fract_y
 _atom_site_fract_z
 _atom_site_occupancy
  Ca  Ca0  1  0.11032235  0.51360629  0.00000000  1
  Ca  Ca1  1  0.88967765  0.48639371  0.00000000  1
  Ca  Ca2  1  0.38967765  0.01360629  0.00000000  1
  Ca  Ca3  1  0.61032235  0.98639371  -0.00000000  1
  Ca  Ca4  1  0.68674779  0.55145905  0.41489770  1
  Ca  Ca5  1  -0.68674779  -0.55145905  0.41489770  1
  Ca  Ca6  1  -0.18674779  1.05145905  -0.41489770  1
  Ca  Ca7  1  1.18674779  -0.05145905  -0.41489770  1
  Ca  Ca8  1  -0.68674779  -0.55145905  -0.41489770  1
  Ca  Ca9  1  0.68674779  0.55145905  -0.41489770  1
  Ca  Ca10  1  1.18674779  -0.05145905  0.41489770  1
  Ca  Ca11  1  -0.18674779  1.05145905  0.41489770  1
  Ca  Ca12  1  0.00000000  0.50000000  0.80228803  1
  Ca  Ca13  1  0.50000000  -0.00000000  0.19771197  1
  Ca  Ca14  1  0.00000000  0.50000000  0.19771197  1
  Ca  Ca15  1  0.50000000  -0.00000000  0.80228803  1
  Ca  Ca16  1  0.00000000  0.00000000  0.50000000  1
  Ca  Ca17  1  0.50000000  0.50000000  0.50000000  1
  F  F18  1  0.04690742  0.68186605  0.85537252  1
  F  F19  1  0.95309258  0.31813395  0.85537252  1
  F  F20  1  0.45309258  0.18186605  0.14462748  1
  F  F21  1  0.54690742  0.81813395  0.14462748  1
  F  F22  1  0.95309258  0.31813395  0.14462748  1
  F  F23  1  0.04690742  0.68186605  0.14462748  1
  F  F24  1  0.54690742  0.81813395  0.85537252  1
  F  F25  1  0.45309258  0.18186605  0.85537252  1
  F  F26  1  0.00000000  0.00000000  0.00000000  1
  F  F27  1  0.50000000  0.50000000  0.00000000  1
  F  F28  1  0.67198776  0.03438005  0.50000000  1
  F  F29  1  0.32801224  0.96561995  0.50000000  1
  F  F30  1  0.82801224  0.53438005  0.50000000  1
  F  F31  1  0.17198776  0.46561995  0.50000000  1
  F  F32  1  0.41610795  0.88123895  0.02977235  1
  F  F33  1  0.58389205  0.11876105  0.02977235  1
  F  F34  1  0.08389205  0.38123895  0.97022765  1
  F  F35  1  0.91610795  0.61876105  0.97022765  1
  F  F36  1  0.58389205  0.11876105  0.97022765  1
  F  F37  1  0.41610795  0.88123895  0.97022765  1
  F  F38  1  0.91610795  0.61876105  0.02977235  1
  F  F39  1  0.08389205  0.38123895  0.02977235  1
  F  F40  1  0.13367948  0.80154829  0.58850288  1
  F  F41  1  0.86632052  0.19845171  0.58850288  1
  F  F42  1  0.36632052  0.30154829  0.41149712  1
  F  F43  1  0.63367948  0.69845171  0.41149712  1
  F  F44  1  0.86632052  0.19845171  0.41149712  1
  F  F45  1  0.13367948  0.80154829  0.41149712  1
  F  F46  1  0.63367948  0.69845171  0.58850288  1
  F  F47  1  0.36632052  0.30154829  0.58850288  1
  F  F48  1  0.74611751  0.32346751  0.72163284  1
  F  F49  1  0.25388249  0.67653249  0.72163284  1
  F  F50  1  0.75388249  0.82346751  0.27836716  1
  F  F51  1  0.24611751  0.17653249  0.27836716  1
  F  F52  1  0.25388249  0.67653249  0.27836716  1
  F  F53  1  0.74611751  0.32346751  0.27836716  1
  F  F54  1  0.24611751  0.17653249  0.72163284  1
  F  F55  1  0.75388249  0.82346751  0.72163284  1
  F  F56  1  0.00000000  0.50000000  0.02411043  1
  F  F57  1  0.50000000  -0.00000000  0.97588957  1
  F  F58  1  0.00000000  0.50000000  0.97588957  1
  F  F59  1  0.50000000  -0.00000000  0.02411043  1
  F  F60  1  0.09656813  0.37209602  0.45056101  1
  F  F61  1  0.90343187  0.62790398  0.45056101  1
  F  F62  1  0.40343187  0.87209602  0.54943899  1
  F  F63  1  0.59656813  0.12790398  0.54943899  1
  F  F64  1  0.90343187  0.62790398  0.54943899  1
  F  F65  1  0.09656813  0.37209602  0.54943899  1
  F  F66  1  0.59656813  0.12790398  0.45056101  1
  F  F67  1  0.40343187  0.87209602  0.45056101  1
  F  F68  1  0.84319027  0.33782438  0.50000000  1
  F  F69  1  0.15680973  0.66217562  0.50000000  1
  F  F70  1  0.65680973  0.83782438  0.50000000  1
  F  F71  1  0.34319027  0.16217562  0.50000000  1
  Li  Li72  1  0.00000000  0.50000000  0.91251314  1
  Li  Li73  1  0.50000000  -0.00000000  0.08748686  1
  Li  Li74  1  0.00000000  0.50000000  0.08748686  1
  Li  Li75  1  0.50000000  -0.00000000  0.91251314  1
  Li  Li76  1  0.23716233  0.16041767  0.50000000  1
  Li  Li77  1  0.76283767  0.83958233  0.50000000  1
  Li  Li78  1  0.26283767  0.66041767  0.50000000  1
  Li  Li79  1  0.73716233  0.33958233  0.50000000  1
  Li  Li80  1  0.51484807  0.74948526  0.50000000  1
  Li  Li81  1  0.48515193  0.25051474  0.50000000  1
  Li  Li82  1  0.98515193  0.24948526  0.50000000  1
  Li  Li83  1  0.01484807  0.75051474  0.50000000  1
  Li  Li84  1  0.00000000  0.00000000  0.34550954  1
  Li  Li85  1  0.50000000  0.50000000  0.65449046  1
  Li  Li86  1  0.00000000  0.00000000  0.65449046  1
  Li  Li87  1  0.50000000  0.50000000  0.34550954  1
  Li  Li88  1  0.00000000  0.50000000  0.50000000  1
  Li  Li89  1  0.50000000  -0.00000000  0.50000000  1
