# generated using pymatgen
data_LiF
_symmetry_space_group_name_H-M   'P 1'
_cell_length_a   6.04546003
_cell_length_b   7.82490097
_cell_length_c   7.99705778
_cell_angle_alpha   90.00000000
_cell_angle_beta   90.00000000
_cell_angle_gamma   90.00000000
_symmetry_Int_Tables_number   1
_chemical_formula_structural   LiF
_chemical_formula_sum   'Li24 F24'
_cell_volume   378.30182691
_cell_formula_units_Z   24
loop_
 _symmetry_equiv_pos_site_id
 _symmetry_equiv_pos_as_xyz
  1  'x, y, z'
loop_
 _atom_site_type_symbol
 _atom_site_label
 _atom_site_symmetry_multiplicity
 _atom_site_fract_x
 _atom_site_fract_y
 _atom_site_fract_z
 _atom_site_occupancy
  F  F0  1  0.95355327  0.94018251  0.85826462  1
  F  F1  1  0.54644673  0.05981749  0.35826462  1
  F  F2  1  0.04644673  0.44018251  0.14173538  1
  F  F3  1  0.45355327  0.55981749  0.64173538  1
  F  F4  1  0.04644673  0.05981749  0.14173538  1
  F  F5  1  0.45355327  0.94018251  0.64173538  1
  F  F6  1  0.95355327  0.55981749  0.85826462  1
  F  F7  1  0.54644673  0.44018251  0.35826462  1
  F  F8  1  0.59565453  0.97877951  0.80152358  1
  F  F9  1  0.90434547  0.02122049  0.30152358  1
  F  F10  1  0.40434547  0.47877951  0.19847642  1
  F  F11  1  0.09565453  0.52122049  0.69847642  1
  F  F12  1  0.40434547  0.02122049  0.19847642  1
  F  F13  1  0.09565453  0.97877951  0.69847642  1
  F  F14  1  0.59565453  0.52122049  0.80152358  1
  F  F15  1  0.90434547  0.47877951  0.30152358  1
  F  F16  1  0.75173645  0.88452639  0.96192450  1
  F  F17  1  0.74826355  0.11547361  0.46192450  1
  F  F18  1  0.24826355  0.38452639  0.03807550  1
  F  F19  1  0.25173645  0.61547361  0.53807550  1
  F  F20  1  0.24826355  0.11547361  0.03807550  1
  F  F21  1  0.25173645  0.88452639  0.53807550  1
  F  F22  1  0.75173645  0.61547361  0.96192450  1
  F  F23  1  0.74826355  0.38452639  0.46192450  1
  Li  Li24  1  0.64359496  0.94194008  0.08491331  1
  Li  Li25  1  -0.14359496  -0.94194008  0.58491331  1
  Li  Li26  1  -0.64359496  1.44194008  -0.08491331  1
  Li  Li27  1  1.14359496  -0.44194008  0.41508669  1
  Li  Li28  1  -0.64359496  -0.94194008  -0.08491331  1
  Li  Li29  1  1.14359496  0.94194008  0.41508669  1
  Li  Li30  1  0.64359496  -0.44194008  0.08491331  1
  Li  Li31  1  -0.14359496  1.44194008  0.58491331  1
  Li  Li32  1  0.64268229  0.25000000  0.79648658  1
  Li  Li33  1  0.85731771  0.75000000  0.29648658  1
  Li  Li34  1  0.35731771  0.75000000  0.20351342  1
  Li  Li35  1  0.14268229  0.25000000  0.70351342  1
  Li  Li36  1  0.25782845  0.85708883  0.72624043  1
  Li  Li37  1  0.24217155  0.14291117  0.22624043  1
  Li  Li38  1  0.74217155  0.35708883  0.27375957  1
  Li  Li39  1  0.75782845  0.64291117  0.77375957  1
  Li  Li40  1  0.74217155  0.14291117  0.27375957  1
  Li  Li41  1  0.75782845  0.85708883  0.77375957  1
  Li  Li42  1  0.25782845  0.64291117  0.72624043  1
  Li  Li43  1  0.24217155  0.35708883  0.22624043  1
  Li  Li44  1  0.21528855  0.25000000  0.47874556  1
  Li  Li45  1  0.28471145  0.75000000  0.97874556  1
  Li  Li46  1  0.78471145  0.75000000  0.52125444  1
  Li  Li47  1  0.71528855  0.25000000  0.02125444  1
