# generated using pymatgen
data_Li2Ca3F8
_symmetry_space_group_name_H-M   'P 1'
_cell_length_a   9.36439081
_cell_length_b   9.36439081
_cell_length_c   23.39451057
_cell_angle_alpha   90.00000000
_cell_angle_beta   90.00000000
_cell_angle_gamma   90.00000000
_symmetry_Int_Tables_number   1
_chemical_formula_structural   Li2Ca3F8
_chemical_formula_sum   'Li16 Ca24 F64'
_cell_volume   2051.50709741
_cell_formula_units_Z   8
loop_
 _symmetry_equiv_pos_site_id
 _symmetry_equiv_pos_as_xyz
  1  'x, y, z'
loop_
 _atom_site_type_symbol
 _atom_site_label
 _atom_site_symmetry_multiplicity
 _atom_site_fract_x
 _atom_site_fract_y
 _atom_site_fract_z
 _atom_site_occupancy
  Ca  Ca0  1  0.00000000  0.25000000  0.75790294  1
  Ca  Ca1  1  0.00000000  0.75000000  0.00790294  1
  Ca  Ca2  1  0.50000000  0.25000000  0.24209706  1
  Ca  Ca3  1  0.50000000  0.75000000  0.99209706  1
  Ca  Ca4  1  0.00000000  0.75000000  0.24209706  1
  Ca  Ca5  1  0.00000000  0.25000000  0.99209706  1
  Ca  Ca6  1  0.50000000  0.75000000  0.75790294  1
  Ca  Ca7  1  0.50000000  0.25000000  0.00790294  1
  Ca  Ca8  1  0.50000000  0.75000000  0.25790294  1
  Ca  Ca9  1  0.50000000  0.25000000  0.50790294  1
  Ca  Ca10  1  0.00000000  0.75000000  0.74209706  1
  Ca  Ca11  1  0.00000000  0.25000000  0.49209706  1
  Ca  Ca12  1  0.50000000  0.25000000  0.74209706  1
  Ca  Ca13  1  0.50000000  0.75000000  0.49209706  1
  Ca  Ca14  1  0.00000000  0.25000000  0.25790294  1
  Ca  Ca15  1  0.00000000  0.75000000  0.50790294  1
  Ca  Ca16  1  0.00000000  0.25000000  0.12500000  1
  Ca  Ca17  1  0.00000000  0.75000000  0.37500000  1
  Ca  Ca18  1  0.00000000  0.75000000  0.87500000  1
  Ca  Ca19  1  0.00000000  0.25000000  0.62500000  1
  Ca  Ca20  1  0.50000000  0.75000000  0.62500000  1
  Ca  Ca21  1  0.50000000  0.25000000  0.87500000  1
  Ca  Ca22  1  0.50000000  0.25000000  0.37500000  1
  Ca  Ca23  1  0.50000000  0.75000000  0.12500000  1
  F  F24  1  0.12403655  0.00000000  0.25000000  1
  F  F25  1  0.37596345  0.00000000  0.75000000  1
  F  F26  1  0.25000000  0.87403655  0.50000000  1
  F  F27  1  0.25000000  0.12596345  0.00000000  1
  F  F28  1  0.87596345  0.00000000  0.75000000  1
  F  F29  1  0.62403655  0.00000000  0.25000000  1
  F  F30  1  0.75000000  0.12596345  0.50000000  1
  F  F31  1  0.75000000  0.87403655  -0.00000000  1
  F  F32  1  0.62403655  0.50000000  0.75000000  1
  F  F33  1  0.87596345  0.50000000  0.25000000  1
  F  F34  1  0.75000000  0.37403655  -0.00000000  1
  F  F35  1  0.75000000  0.62596345  0.50000000  1
  F  F36  1  0.37596345  0.50000000  0.25000000  1
  F  F37  1  0.12403655  0.50000000  0.75000000  1
  F  F38  1  0.25000000  0.62596345  0.00000000  1
  F  F39  1  0.25000000  0.37403655  0.50000000  1
  F  F40  1  0.85522490  0.20915184  0.62306135  1
  F  F41  1  -0.35522490  -0.20915184  1.12306135  1
  F  F42  1  0.04084816  1.60522490  0.87306135  1
  F  F43  1  0.45915184  -0.60522490  1.37306135  1
  F  F44  1  -0.35522490  0.20915184  -0.62306135  1
  F  F45  1  0.85522490  -0.20915184  -0.12306135  1
  F  F46  1  0.45915184  1.60522490  0.12693865  1
  F  F47  1  0.04084816  -0.60522490  -0.37306135  1
  F  F48  1  -0.85522490  -0.20915184  -0.62306135  1
  F  F49  1  1.35522490  0.20915184  -0.12306135  1
  F  F50  1  0.95915184  -0.60522490  0.12693865  1
  F  F51  1  0.54084816  1.60522490  -0.37306135  1
  F  F52  1  1.35522490  -0.20915184  0.62306135  1
  F  F53  1  -0.85522490  0.20915184  1.12306135  1
  F  F54  1  0.54084816  -0.60522490  0.87306135  1
  F  F55  1  0.95915184  1.60522490  1.37306135  1
  F  F56  1  1.35522490  0.70915184  1.12306135  1
  F  F57  1  0.14477510  0.29084816  1.62306135  1
  F  F58  1  0.54084816  2.10522490  1.37306135  1
  F  F59  1  0.95915184  -0.10522490  1.87306135  1
  F  F60  1  0.14477510  0.70915184  -0.12306135  1
  F  F61  1  1.35522490  0.29084816  0.37693865  1
  F  F62  1  0.95915184  2.10522490  0.62693865  1
  F  F63  1  0.54084816  -0.10522490  0.12693865  1
  F  F64  1  -0.35522490  0.29084816  -0.12306135  1
  F  F65  1  1.85522490  0.70915184  0.37693865  1
  F  F66  1  1.45915184  -0.10522490  0.62693865  1
  F  F67  1  1.04084816  2.10522490  0.12693865  1
  F  F68  1  1.85522490  0.29084816  1.12306135  1
  F  F69  1  -0.35522490  0.70915184  1.62306135  1
  F  F70  1  1.04084816  -0.10522490  1.37306135  1
  F  F71  1  1.45915184  2.10522490  1.87306135  1
  F  F72  1  0.29376446  0.00000000  0.25000000  1
  F  F73  1  0.20623554  0.00000000  0.75000000  1
  F  F74  1  0.25000000  0.04376446  0.50000000  1
  F  F75  1  0.25000000  0.95623554  0.00000000  1
  F  F76  1  0.70623554  0.00000000  0.75000000  1
  F  F77  1  0.79376446  0.00000000  0.25000000  1
  F  F78  1  0.75000000  0.95623554  0.50000000  1
  F  F79  1  0.75000000  0.04376446  -0.00000000  1
  F  F80  1  0.79376446  0.50000000  0.75000000  1
  F  F81  1  0.70623554  0.50000000  0.25000000  1
  F  F82  1  0.75000000  0.54376446  0.00000000  1
  F  F83  1  0.75000000  0.45623554  0.50000000  1
  F  F84  1  0.20623554  0.50000000  0.25000000  1
  F  F85  1  0.29376446  0.50000000  0.75000000  1
  F  F86  1  0.25000000  0.45623554  0.00000000  1
  F  F87  1  0.25000000  0.54376446  0.50000000  1
  Li  Li88  1  0.32697267  0.57697267  0.12500000  1
  Li  Li89  1  0.17302733  0.42302733  0.62500000  1
  Li  Li90  1  0.67302733  0.07697267  0.37500000  1
  Li  Li91  1  0.82697267  0.92302733  0.87500000  1
  Li  Li92  1  0.67302733  0.42302733  0.87500000  1
  Li  Li93  1  0.82697267  0.57697267  0.37500000  1
  Li  Li94  1  0.32697267  0.92302733  0.62500000  1
  Li  Li95  1  0.17302733  0.07697267  0.12500000  1
  Li  Li96  1  0.82697267  0.07697267  0.62500000  1
  Li  Li97  1  0.67302733  0.92302733  0.12500000  1
  Li  Li98  1  0.17302733  0.57697267  0.87500000  1
  Li  Li99  1  0.32697267  0.42302733  0.37500000  1
  Li  Li100  1  0.17302733  0.92302733  0.37500000  1
  Li  Li101  1  0.32697267  0.07697267  0.87500000  1
  Li  Li102  1  0.82697267  0.42302733  0.12500000  1
  Li  Li103  1  0.67302733  0.57697267  0.62500000  1
