# generated using pymatgen
data_LiF
_symmetry_space_group_name_H-M   'P 1'
_cell_length_a   11.26249520
_cell_length_b   11.26249520
_cell_length_c   7.13602078
_cell_angle_alpha   90.00000000
_cell_angle_beta   90.00000000
_cell_angle_gamma   120.00000000
_symmetry_Int_Tables_number   1
_chemical_formula_structural   LiF
_chemical_formula_sum   'Li36 F36'
_cell_volume   783.89153735
_cell_formula_units_Z   36
loop_
 _symmetry_equiv_pos_site_id
 _symmetry_equiv_pos_as_xyz
  1  'x, y, z'
loop_
 _atom_site_type_symbol
 _atom_site_label
 _atom_site_symmetry_multiplicity
 _atom_site_fract_x
 _atom_site_fract_y
 _atom_site_fract_z
 _atom_site_occupancy
  F  F0  1  0.76627964  -0.00000000  0.25000000  1
  F  F1  1  0.00000000  0.76627964  0.25000000  1
  F  F2  1  0.23372036  0.23372036  0.25000000  1
  F  F3  1  0.23372036  -0.00000000  0.75000000  1
  F  F4  1  0.00000000  0.23372036  0.75000000  1
  F  F5  1  0.76627964  0.76627964  0.75000000  1
  F  F6  1  0.43294630  0.33333333  0.58333333  1
  F  F7  1  0.66666667  0.09961297  0.58333333  1
  F  F8  1  0.90038703  0.56705370  0.58333333  1
  F  F9  1  0.90038703  0.33333333  0.08333333  1
  F  F10  1  0.66666667  0.56705370  0.08333333  1
  F  F11  1  0.43294630  0.09961297  0.08333333  1
  F  F12  1  0.09961297  0.66666667  0.91666667  1
  F  F13  1  0.33333333  0.43294630  0.91666667  1
  F  F14  1  0.56705370  0.90038703  0.91666667  1
  F  F15  1  0.56705370  0.66666667  0.41666667  1
  F  F16  1  0.33333333  0.90038703  0.41666667  1
  F  F17  1  0.09961297  0.43294630  0.41666667  1
  F  F18  1  0.69671450  0.00000000  0.25000000  1
  F  F19  1  0.00000000  0.69671450  0.25000000  1
  F  F20  1  0.30328550  0.30328550  0.25000000  1
  F  F21  1  0.30328550  0.00000000  0.75000000  1
  F  F22  1  0.00000000  0.30328550  0.75000000  1
  F  F23  1  0.69671450  0.69671450  0.75000000  1
  F  F24  1  0.36338117  0.33333333  0.58333333  1
  F  F25  1  0.66666667  0.03004783  0.58333333  1
  F  F26  1  0.96995217  0.63661883  0.58333333  1
  F  F27  1  0.96995217  0.33333333  0.08333333  1
  F  F28  1  0.66666667  0.63661883  0.08333333  1
  F  F29  1  0.36338117  0.03004783  0.08333333  1
  F  F30  1  0.03004783  0.66666667  0.91666667  1
  F  F31  1  0.33333333  0.36338117  0.91666667  1
  F  F32  1  0.63661883  0.96995217  0.91666667  1
  F  F33  1  0.63661883  0.66666667  0.41666667  1
  F  F34  1  0.33333333  0.96995217  0.41666667  1
  F  F35  1  0.03004783  0.36338117  0.41666667  1
  Li  Li36  1  0.14162397  0.59532737  0.05193878  1
  Li  Li37  1  -0.59532737  -0.45370340  0.05193878  1
  Li  Li38  1  0.45370340  -0.14162397  0.05193878  1
  Li  Li39  1  0.59532737  0.14162397  0.44806122  1
  Li  Li40  1  -0.45370340  -0.59532737  0.44806122  1
  Li  Li41  1  -0.14162397  0.45370340  0.44806122  1
  Li  Li42  1  -0.14162397  -0.59532737  -0.05193878  1
  Li  Li43  1  0.59532737  0.45370340  -0.05193878  1
  Li  Li44  1  -0.45370340  0.14162397  -0.05193878  1
  Li  Li45  1  -0.59532737  -0.14162397  0.55193878  1
  Li  Li46  1  0.45370340  0.59532737  0.55193878  1
  Li  Li47  1  0.14162397  -0.45370340  0.55193878  1
  Li  Li48  1  0.80829063  0.92866070  0.38527211  1
  Li  Li49  1  0.07133930  -0.12037007  0.38527211  1
  Li  Li50  1  1.12037007  0.19170937  0.38527211  1
  Li  Li51  1  1.26199403  0.47495730  0.78139455  1
  Li  Li52  1  0.21296327  -0.26199403  0.78139455  1
  Li  Li53  1  0.52504270  0.78703673  0.78139455  1
  Li  Li54  1  0.52504270  -0.26199403  0.28139455  1
  Li  Li55  1  1.26199403  0.78703673  0.28139455  1
  Li  Li56  1  0.21296327  0.47495730  0.28139455  1
  Li  Li57  1  0.07133930  0.19170937  0.88527211  1
  Li  Li58  1  1.12037007  0.92866070  0.88527211  1
  Li  Li59  1  0.80829063  -0.12037007  0.88527211  1
  Li  Li60  1  0.47495730  1.26199403  0.71860545  1
  Li  Li61  1  -0.26199403  0.21296327  0.71860545  1
  Li  Li62  1  0.78703673  0.52504270  0.71860545  1
  Li  Li63  1  0.92866070  0.80829063  1.11472789  1
  Li  Li64  1  -0.12037007  0.07133930  1.11472789  1
  Li  Li65  1  0.19170937  1.12037007  1.11472789  1
  Li  Li66  1  0.19170937  0.07133930  0.61472789  1
  Li  Li67  1  0.92866070  1.12037007  0.61472789  1
  Li  Li68  1  -0.12037007  0.80829063  0.61472789  1
  Li  Li69  1  -0.26199403  0.52504270  1.21860545  1
  Li  Li70  1  0.78703673  1.26199403  1.21860545  1
  Li  Li71  1  0.47495730  0.21296327  1.21860545  1
