# generated using pymatgen
data_LiF
_symmetry_space_group_name_H-M   'P 1'
_cell_length_a   5.61079157
_cell_length_b   5.61079157
_cell_length_c   33.10005122
_cell_angle_alpha   90.00000000
_cell_angle_beta   90.00000000
_cell_angle_gamma   120.00000000
_symmetry_Int_Tables_number   1
_chemical_formula_structural   LiF
_chemical_formula_sum   'Li36 F36'
_cell_volume   902.41762614
_cell_formula_units_Z   36
loop_
 _symmetry_equiv_pos_site_id
 _symmetry_equiv_pos_as_xyz
  1  'x, y, z'
loop_
 _atom_site_type_symbol
 _atom_site_label
 _atom_site_symmetry_multiplicity
 _atom_site_fract_x
 _atom_site_fract_y
 _atom_site_fract_z
 _atom_site_occupancy
  F  F0  1  0.13904706  0.00526241  0.93784922  1
  F  F1  1  -0.00526241  0.13378465  0.93784922  1
  F  F2  1  -0.13378465  -0.13904706  0.93784922  1
  F  F3  1  -0.13904706  -0.00526241  1.43784922  1
  F  F4  1  0.00526241  -0.13378465  1.43784922  1
  F  F5  1  0.13378465  0.13904706  1.43784922  1
  F  F6  1  -0.13904706  -0.00526241  -0.93784922  1
  F  F7  1  0.00526241  -0.13378465  -0.93784922  1
  F  F8  1  0.13378465  0.13904706  -0.93784922  1
  F  F9  1  0.13904706  0.00526241  -0.43784922  1
  F  F10  1  -0.00526241  0.13378465  -0.43784922  1
  F  F11  1  -0.13378465  -0.13904706  -0.43784922  1
  F  F12  1  0.25855127  0.10572496  0.44126783  1
  F  F13  1  0.89427504  0.15282631  0.44126783  1
  F  F14  1  0.84717369  0.74144873  0.44126783  1
  F  F15  1  0.74144873  0.89427504  0.94126783  1
  F  F16  1  0.10572496  0.84717369  0.94126783  1
  F  F17  1  0.15282631  0.25855127  0.94126783  1
  F  F18  1  0.74144873  0.89427504  0.55873217  1
  F  F19  1  0.10572496  0.84717369  0.55873217  1
  F  F20  1  0.15282631  0.25855127  0.55873217  1
  F  F21  1  0.25855127  0.10572496  0.05873217  1
  F  F22  1  0.89427504  0.15282631  0.05873217  1
  F  F23  1  0.84717369  0.74144873  0.05873217  1
  F  F24  1  0.00000000  0.00000000  0.27892064  1
  F  F25  1  0.00000000  0.00000000  0.77892064  1
  F  F26  1  0.00000000  0.00000000  0.72107936  1
  F  F27  1  0.00000000  0.00000000  0.22107936  1
  F  F28  1  0.66666667  0.33333333  0.25000000  1
  F  F29  1  0.33333333  0.66666667  0.75000000  1
  F  F30  1  0.42878470  0.80196399  0.25000000  1
  F  F31  1  0.19803601  0.62682072  0.25000000  1
  F  F32  1  0.37317928  0.57121530  0.25000000  1
  F  F33  1  0.57121530  0.19803601  0.75000000  1
  F  F34  1  0.80196399  0.37317928  0.75000000  1
  F  F35  1  0.62682072  0.42878470  0.75000000  1
  Li  Li36  1  0.33333333  0.66666667  0.43010911  1
  Li  Li37  1  0.66666667  0.33333333  0.93010911  1
  Li  Li38  1  0.66666667  0.33333333  0.56989089  1
  Li  Li39  1  0.33333333  0.66666667  0.06989089  1
  Li  Li40  1  0.61174799  0.64939997  0.25000000  1
  Li  Li41  1  0.35060003  0.96234802  0.25000000  1
  Li  Li42  1  0.03765198  0.38825201  0.25000000  1
  Li  Li43  1  0.38825201  0.35060003  0.75000000  1
  Li  Li44  1  0.64939997  0.03765198  0.75000000  1
  Li  Li45  1  0.96234802  0.61174799  0.75000000  1
  Li  Li46  1  0.55362111  0.52654297  0.91132763  1
  Li  Li47  1  0.47345703  0.02707814  0.91132763  1
  Li  Li48  1  0.97292186  0.44637889  0.91132763  1
  Li  Li49  1  0.44637889  0.47345703  0.41132763  1
  Li  Li50  1  0.52654297  0.97292186  0.41132763  1
  Li  Li51  1  0.02707814  0.55362111  0.41132763  1
  Li  Li52  1  0.44637889  0.47345703  0.08867237  1
  Li  Li53  1  0.52654297  0.97292186  0.08867237  1
  Li  Li54  1  0.02707814  0.55362111  0.08867237  1
  Li  Li55  1  0.55362111  0.52654297  0.58867237  1
  Li  Li56  1  0.47345703  0.02707814  0.58867237  1
  Li  Li57  1  0.97292186  0.44637889  0.58867237  1
  Li  Li58  1  0.68933724  0.09052441  0.25000000  1
  Li  Li59  1  0.90947559  0.59881283  0.25000000  1
  Li  Li60  1  0.40118717  0.31066276  0.25000000  1
  Li  Li61  1  0.31066276  0.90947559  0.75000000  1
  Li  Li62  1  0.09052441  0.40118717  0.75000000  1
  Li  Li63  1  0.59881283  0.68933724  0.75000000  1
  Li  Li64  1  0.50000000  0.00000000  0.00000000  1
  Li  Li65  1  0.00000000  0.50000000  0.00000000  1
  Li  Li66  1  0.50000000  0.50000000  0.00000000  1
  Li  Li67  1  0.50000000  0.00000000  0.50000000  1
  Li  Li68  1  0.00000000  0.50000000  0.50000000  1
  Li  Li69  1  0.50000000  0.50000000  0.50000000  1
  Li  Li70  1  0.00000000  0.00000000  0.00000000  1
  Li  Li71  1  0.00000000  0.00000000  0.50000000  1
