# generated using pymatgen
data_LiF
_symmetry_space_group_name_H-M   'P 1'
_cell_length_a   14.76115463
_cell_length_b   14.76115463
_cell_length_c   4.58938882
_cell_angle_alpha   90.00000000
_cell_angle_beta   90.00000000
_cell_angle_gamma   120.00000000
_symmetry_Int_Tables_number   1
_chemical_formula_structural   LiF
_chemical_formula_sum   'Li25 F25'
_cell_volume   866.01645467
_cell_formula_units_Z   25
loop_
 _symmetry_equiv_pos_site_id
 _symmetry_equiv_pos_as_xyz
  1  'x, y, z'
loop_
 _atom_site_type_symbol
 _atom_site_label
 _atom_site_symmetry_multiplicity
 _atom_site_fract_x
 _atom_site_fract_y
 _atom_site_fract_z
 _atom_site_occupancy
  F  F0  1  0.59270938  0.38337361  0.23958939  1
  F  F1  1  0.61662639  0.20933577  0.23958939  1
  F  F2  1  0.79066423  0.40729062  0.23958939  1
  F  F3  1  0.61662639  0.40729062  0.76041061  1
  F  F4  1  0.79066423  0.38337361  0.76041061  1
  F  F5  1  0.59270938  0.20933577  0.76041061  1
  F  F6  1  0.77867889  0.22132111  0.50000000  1
  F  F7  1  0.77867889  0.55735778  0.50000000  1
  F  F8  1  0.44264222  0.22132111  0.50000000  1
  F  F9  1  0.74543439  0.65341075  0.29725358  1
  F  F10  1  0.34658925  0.09202364  0.29725358  1
  F  F11  1  0.90797636  0.25456561  0.29725358  1
  F  F12  1  0.34658925  0.25456561  0.70274642  1
  F  F13  1  0.90797636  0.65341075  0.70274642  1
  F  F14  1  0.74543439  0.09202364  0.70274642  1
  F  F15  1  0.45432724  0.75647589  0.51319572  1
  F  F16  1  0.24352411  0.69785135  0.51319572  1
  F  F17  1  0.30214865  0.54567276  0.51319572  1
  F  F18  1  0.24352411  0.54567276  0.48680428  1
  F  F19  1  0.30214865  0.75647589  0.48680428  1
  F  F20  1  0.45432724  0.69785135  0.48680428  1
  F  F21  1  0.19930620  0.80069380  0.00000000  1
  F  F22  1  0.19930620  0.39861240  0.00000000  1
  F  F23  1  0.60138760  0.80069380  0.00000000  1
  F  F24  1  0.00000000  0.00000000  0.00000000  1
  Li  Li25  1  0.68960434  0.21165410  0.74757221  1
  Li  Li26  1  -0.21165410  0.47795025  0.74757221  1
  Li  Li27  1  -0.47795025  -0.68960434  0.74757221  1
  Li  Li28  1  -0.21165410  -0.68960434  -0.74757221  1
  Li  Li29  1  -0.47795025  0.21165410  -0.74757221  1
  Li  Li30  1  0.68960434  0.47795025  -0.74757221  1
  Li  Li31  1  0.00000000  0.00000000  0.50000000  1
  Li  Li32  1  0.42999621  0.57000379  0.00000000  1
  Li  Li33  1  0.42999621  0.85999243  0.00000000  1
  Li  Li34  1  0.14000757  0.57000379  0.00000000  1
  Li  Li35  1  0.66666667  0.33333333  0.75573155  1
  Li  Li36  1  0.66666667  0.33333333  0.24426845  1
  Li  Li37  1  0.96082024  0.45247735  0.68950868  1
  Li  Li38  1  0.54752265  0.50834289  0.68950868  1
  Li  Li39  1  0.49165711  0.03917976  0.68950868  1
  Li  Li40  1  0.54752265  0.03917976  0.31049132  1
  Li  Li41  1  0.49165711  0.45247735  0.31049132  1
  Li  Li42  1  0.96082024  0.50834289  0.31049132  1
  Li  Li43  1  0.33333333  0.66666667  0.50000000  1
  Li  Li44  1  0.25394212  0.51548970  0.29437296  1
  Li  Li45  1  0.48451030  0.73845241  0.29437296  1
  Li  Li46  1  0.26154759  0.74605788  0.29437296  1
  Li  Li47  1  0.48451030  0.74605788  0.70562704  1
  Li  Li48  1  0.26154759  0.51548970  0.70562704  1
  Li  Li49  1  0.25394212  0.73845241  0.70562704  1
