# generated using pymatgen
data_Li2Y2Te4P3
_symmetry_space_group_name_H-M   'P 1'
_cell_length_a   5.15189174
_cell_length_b   5.28247401
_cell_length_c   7.22792162
_cell_angle_alpha   94.74411226
_cell_angle_beta   100.33169021
_cell_angle_gamma   109.05521343
_symmetry_Int_Tables_number   1
_chemical_formula_structural   Li2Y2Te4P3
_chemical_formula_sum   'Li2 Y2 Te4 P3'
_cell_volume   180.78986976
_cell_formula_units_Z   1
loop_
 _symmetry_equiv_pos_site_id
 _symmetry_equiv_pos_as_xyz
  1  'x, y, z'
loop_
 _atom_site_type_symbol
 _atom_site_label
 _atom_site_symmetry_multiplicity
 _atom_site_fract_x
 _atom_site_fract_y
 _atom_site_fract_z
 _atom_site_occupancy
  Te  Te0  1  0.00000000  0.00000000  0.00000000  1
  Te  Te1  1  0.50000000  0.50000000  0.50000000  1
  Te  Te2  1  0.25000000  0.25000000  0.25000000  1
  Te  Te3  1  0.75000000  0.25000000  0.00000000  1
  P  P4  1  0.25000000  0.75000000  0.50000000  1
  P  P5  1  0.54370400  0.90154081  0.64806125  1
  P  P6  1  0.68442546  0.15168052  0.30954484  1
  Li  Li7  1  0.81716714  0.95747092  0.63869643  1
  Li  Li8  1  0.98669072  0.28163627  0.57851999  1
  Y  Y9  1  0.61477172  0.27221072  0.88593438  1
  Y  Y10  1  0.92061336  0.60102866  0.69281356  1
