# generated using pymatgen
data_LiY2P2Se
_symmetry_space_group_name_H-M   'P 1'
_cell_length_a   3.63488420
_cell_length_b   3.93001044
_cell_length_c   6.08372506
_cell_angle_alpha   96.65727613
_cell_angle_beta   102.41469943
_cell_angle_gamma   113.47220944
_symmetry_Int_Tables_number   1
_chemical_formula_structural   LiY2P2Se
_chemical_formula_sum   'Li1 Y2 P2 Se1'
_cell_volume   75.85531228
_cell_formula_units_Z   1
loop_
 _symmetry_equiv_pos_site_id
 _symmetry_equiv_pos_as_xyz
  1  'x, y, z'
loop_
 _atom_site_type_symbol
 _atom_site_label
 _atom_site_symmetry_multiplicity
 _atom_site_fract_x
 _atom_site_fract_y
 _atom_site_fract_z
 _atom_site_occupancy
  Y  Y0  1  0.00000000  0.00000000  0.00000000  1
  Y  Y1  1  0.33300000  0.66700000  0.25000000  1
  P  P2  1  0.66700000  0.33300000  0.50000000  1
  P  P3  1  0.00000000  0.00000000  0.75000000  1
  Se  Se4  1  0.93572389  0.55265657  0.60918284  1
  Li  Li5  1  0.72084937  0.78134401  0.91546885  1
