# generated using pymatgen
data_LiF
_symmetry_space_group_name_H-M   'P 1'
_cell_length_a   7.66161042
_cell_length_b   9.73968025
_cell_length_c   9.06904240
_cell_angle_alpha   90.00000000
_cell_angle_beta   90.00000000
_cell_angle_gamma   90.00000000
_symmetry_Int_Tables_number   1
_chemical_formula_structural   LiF
_chemical_formula_sum   'Li18 F18'
_cell_volume   676.74677804
_cell_formula_units_Z   18
loop_
 _symmetry_equiv_pos_site_id
 _symmetry_equiv_pos_as_xyz
  1  'x, y, z'
loop_
 _atom_site_type_symbol
 _atom_site_label
 _atom_site_symmetry_multiplicity
 _atom_site_fract_x
 _atom_site_fract_y
 _atom_site_fract_z
 _atom_site_occupancy
  F  F0  1  0.14364727  0.97256204  0.08913183  1
  F  F1  1  -0.14364727  -0.97256204  0.08913183  1
  F  F2  1  0.35635273  1.47256204  0.41086817  1
  F  F3  1  0.64364727  -0.47256204  0.41086817  1
  F  F4  1  -0.14364727  -0.97256204  -0.08913183  1
  F  F5  1  0.14364727  0.97256204  -0.08913183  1
  F  F6  1  0.64364727  -0.47256204  0.58913183  1
  F  F7  1  0.35635273  1.47256204  0.58913183  1
  F  F8  1  0.61576212  0.65887530  0.68938361  1
  F  F9  1  0.38423788  0.34112470  0.68938361  1
  F  F10  1  0.88423788  0.15887530  0.81061639  1
  F  F11  1  0.11576212  0.84112470  0.81061639  1
  F  F12  1  0.38423788  0.34112470  0.31061639  1
  F  F13  1  0.61576212  0.65887530  0.31061639  1
  F  F14  1  0.11576212  0.84112470  0.18938361  1
  F  F15  1  0.88423788  0.15887530  0.18938361  1
  F  F16  1  0.00000000  0.00000000  0.00000000  1
  F  F17  1  0.50000000  0.50000000  0.50000000  1
  Li  Li18  1  0.38926326  0.65545299  0.81379796  1
  Li  Li19  1  0.61073674  0.34454701  0.81379796  1
  Li  Li20  1  0.11073674  0.15545299  0.68620204  1
  Li  Li21  1  0.88926326  0.84454701  0.68620204  1
  Li  Li22  1  0.61073674  0.34454701  0.18620204  1
  Li  Li23  1  0.38926326  0.65545299  0.18620204  1
  Li  Li24  1  0.88926326  0.84454701  0.31379796  1
  Li  Li25  1  0.11073674  0.15545299  0.31379796  1
  Li  Li26  1  0.00000000  0.50000000  0.50000000  1
  Li  Li27  1  0.50000000  0.00000000  0.00000000  1
  Li  Li28  1  0.11352109  0.74380659  0.62865436  1
  Li  Li29  1  0.88647891  0.25619341  0.62865436  1
  Li  Li30  1  0.38647891  0.24380659  0.87134564  1
  Li  Li31  1  0.61352109  0.75619341  0.87134564  1
  Li  Li32  1  0.88647891  0.25619341  0.37134564  1
  Li  Li33  1  0.11352109  0.74380659  0.37134564  1
  Li  Li34  1  0.61352109  0.75619341  0.12865436  1
  Li  Li35  1  0.38647891  0.24380659  0.12865436  1
