# generated using pymatgen
data_LiF
_symmetry_space_group_name_H-M   'P 1'
_cell_length_a   4.65420697
_cell_length_b   10.64617113
_cell_length_c   4.57722988
_cell_angle_alpha   90.00000000
_cell_angle_beta   90.00000000
_cell_angle_gamma   90.00000000
_symmetry_Int_Tables_number   1
_chemical_formula_structural   LiF
_chemical_formula_sum   'Li10 F10'
_cell_volume   226.79937827
_cell_formula_units_Z   10
loop_
 _symmetry_equiv_pos_site_id
 _symmetry_equiv_pos_as_xyz
  1  'x, y, z'
loop_
 _atom_site_type_symbol
 _atom_site_label
 _atom_site_symmetry_multiplicity
 _atom_site_fract_x
 _atom_site_fract_y
 _atom_site_fract_z
 _atom_site_occupancy
  F  F0  1  0.00000000  0.50000000  0.50000000  1
  F  F1  1  0.50000000  0.00000000  0.50000000  1
  F  F2  1  0.97217753  0.25672667  0.50000000  1
  F  F3  1  -0.97217753  -0.25672667  0.50000000  1
  F  F4  1  -0.47217753  0.75672667  0.50000000  1
  F  F5  1  1.47217753  0.24327333  0.50000000  1
  F  F6  1  0.75991308  0.25703133  -0.00000000  1
  F  F7  1  0.24008692  0.74296867  0.00000000  1
  F  F8  1  0.74008692  0.75703133  0.00000000  1
  F  F9  1  0.25991308  0.24296867  -0.00000000  1
  Li  Li10  1  0.14376313  0.34646598  0.50000000  1
  Li  Li11  1  0.85623687  0.65353402  0.50000000  1
  Li  Li12  1  0.35623687  0.84646598  0.50000000  1
  Li  Li13  1  0.64376313  0.15353402  0.50000000  1
  Li  Li14  1  0.83291636  0.43413824  0.50000000  1
  Li  Li15  1  0.16708364  0.56586176  0.50000000  1
  Li  Li16  1  0.66708364  0.93413824  0.50000000  1
  Li  Li17  1  0.33291636  0.06586176  0.50000000  1
  Li  Li18  1  0.00000000  0.50000000  0.00000000  1
  Li  Li19  1  0.50000000  0.00000000  0.00000000  1
