# generated using pymatgen
data_Li2YTiF
_symmetry_space_group_name_H-M   'P 1'
_cell_length_a   3.09811824
_cell_length_b   3.12138196
_cell_length_c   5.64063462
_cell_angle_alpha   103.10258132
_cell_angle_beta   109.93482806
_cell_angle_gamma   116.85558407
_symmetry_Int_Tables_number   1
_chemical_formula_structural   Li2YTiF
_chemical_formula_sum   'Li2 Y1 Ti1 F1'
_cell_volume   40.76316738
_cell_formula_units_Z   1
loop_
 _symmetry_equiv_pos_site_id
 _symmetry_equiv_pos_as_xyz
  1  'x, y, z'
loop_
 _atom_site_type_symbol
 _atom_site_label
 _atom_site_symmetry_multiplicity
 _atom_site_fract_x
 _atom_site_fract_y
 _atom_site_fract_z
 _atom_site_occupancy
  F  F0  1  0.00000000  0.00000000  0.00000000  1
  Li  Li1  1  0.50000000  0.50000000  0.50000000  1
  Li  Li2  1  0.25000000  0.25000000  0.25000000  1
  Ti  Ti3  1  0.75000000  0.25000000  0.00000000  1
  Y  Y4  1  0.25000000  0.75000000  0.50000000  1
