# generated using pymatgen
data_LiF
_symmetry_space_group_name_H-M   'P 1'
_cell_length_a   6.42266677
_cell_length_b   6.42266677
_cell_length_c   9.79432988
_cell_angle_alpha   90.00000000
_cell_angle_beta   90.00000000
_cell_angle_gamma   120.00000000
_symmetry_Int_Tables_number   1
_chemical_formula_structural   LiF
_chemical_formula_sum   'Li12 F12'
_cell_volume   349.89371218
_cell_formula_units_Z   12
loop_
 _symmetry_equiv_pos_site_id
 _symmetry_equiv_pos_as_xyz
  1  'x, y, z'
loop_
 _atom_site_type_symbol
 _atom_site_label
 _atom_site_symmetry_multiplicity
 _atom_site_fract_x
 _atom_site_fract_y
 _atom_site_fract_z
 _atom_site_occupancy
  F  F0  1  0.00000000  0.00000000  0.79509950  1
  F  F1  1  0.00000000  0.00000000  0.20490050  1
  F  F2  1  0.60902072  0.52048414  0.86951305  1
  F  F3  1  -0.52048414  0.08853657  0.86951305  1
  F  F4  1  -0.08853657  -0.60902072  0.86951305  1
  F  F5  1  -0.52048414  -0.60902072  -0.86951305  1
  F  F6  1  -0.08853657  0.52048414  -0.86951305  1
  F  F7  1  0.60902072  0.08853657  -0.86951305  1
  F  F8  1  0.24459356  0.75540644  0.50000000  1
  F  F9  1  0.24459356  0.48918712  0.50000000  1
  F  F10  1  0.51081288  0.75540644  0.50000000  1
  F  F11  1  0.66666667  0.33333333  0.50000000  1
  Li  Li12  1  0.33333333  0.66666667  0.15403427  1
  Li  Li13  1  0.33333333  0.66666667  0.84596573  1
  Li  Li14  1  0.66666667  0.33333333  0.86088702  1
  Li  Li15  1  0.66666667  0.33333333  0.13911298  1
  Li  Li16  1  0.33333333  0.66666667  0.50000000  1
  Li  Li17  1  0.66666667  0.33333333  0.00000000  1
  Li  Li18  1  0.22394187  0.77605813  0.00000000  1
  Li  Li19  1  0.22394187  0.44788374  0.00000000  1
  Li  Li20  1  0.55211626  0.77605813  0.00000000  1
  Li  Li21  1  0.82873498  0.17126502  0.00000000  1
  Li  Li22  1  0.82873498  0.65746996  0.00000000  1
  Li  Li23  1  0.34253004  0.17126502  0.00000000  1
