# generated using pymatgen
data_LiF
_symmetry_space_group_name_H-M   'P 1'
_cell_length_a   10.79755717
_cell_length_b   10.02356755
_cell_length_c   8.16923900
_cell_angle_alpha   90.00000000
_cell_angle_beta   90.00000000
_cell_angle_gamma   90.00000000
_symmetry_Int_Tables_number   1
_chemical_formula_structural   LiF
_chemical_formula_sum   'Li24 F24'
_cell_volume   884.15709385
_cell_formula_units_Z   24
loop_
 _symmetry_equiv_pos_site_id
 _symmetry_equiv_pos_as_xyz
  1  'x, y, z'
loop_
 _atom_site_type_symbol
 _atom_site_label
 _atom_site_symmetry_multiplicity
 _atom_site_fract_x
 _atom_site_fract_y
 _atom_site_fract_z
 _atom_site_occupancy
  F  F0  1  0.26764047  0.25000000  0.60960330  1
  F  F1  1  0.23235953  0.75000000  0.10960330  1
  F  F2  1  0.73235953  0.75000000  0.39039670  1
  F  F3  1  0.76764047  0.25000000  0.89039670  1
  F  F4  1  0.11628170  0.10313323  0.68362559  1
  F  F5  1  0.38371830  0.89686677  0.18362559  1
  F  F6  1  0.88371830  0.60313323  0.31637441  1
  F  F7  1  0.61628170  0.39686677  0.81637441  1
  F  F8  1  0.88371830  0.89686677  0.31637441  1
  F  F9  1  0.61628170  0.10313323  0.81637441  1
  F  F10  1  0.11628170  0.39686677  0.68362559  1
  F  F11  1  0.38371830  0.60313323  0.18362559  1
  F  F12  1  0.66840259  0.09618211  0.63589750  1
  F  F13  1  0.83159741  0.90381789  0.13589750  1
  F  F14  1  0.33159741  0.59618211  0.36410250  1
  F  F15  1  0.16840259  0.40381789  0.86410250  1
  F  F16  1  0.33159741  0.90381789  0.36410250  1
  F  F17  1  0.16840259  0.09618211  0.86410250  1
  F  F18  1  0.66840259  0.40381789  0.63589750  1
  F  F19  1  0.83159741  0.59618211  0.13589750  1
  F  F20  1  0.66220321  0.25000000  0.16362853  1
  F  F21  1  0.83779679  0.75000000  0.66362853  1
  F  F22  1  0.33779679  0.75000000  0.83637147  1
  F  F23  1  0.16220321  0.25000000  0.33637147  1
  Li  Li24  1  0.21685996  0.25000000  0.45478024  1
  Li  Li25  1  0.28314004  0.75000000  0.95478024  1
  Li  Li26  1  0.78314004  0.75000000  0.54521976  1
  Li  Li27  1  0.71685996  0.25000000  0.04521976  1
  Li  Li28  1  0.74482372  0.95508873  0.90998914  1
  Li  Li29  1  -0.24482372  -0.95508873  1.40998914  1
  Li  Li30  1  -0.74482372  1.45508873  -0.90998914  1
  Li  Li31  1  1.24482372  -0.45508873  -0.40998914  1
  Li  Li32  1  -0.74482372  -0.95508873  -0.90998914  1
  Li  Li33  1  1.24482372  0.95508873  -0.40998914  1
  Li  Li34  1  0.74482372  -0.45508873  0.90998914  1
  Li  Li35  1  -0.24482372  1.45508873  1.40998914  1
  Li  Li36  1  0.49122284  0.53392151  0.23399838  1
  Li  Li37  1  0.00877716  0.46607849  0.73399838  1
  Li  Li38  1  0.50877716  0.03392151  0.76600162  1
  Li  Li39  1  0.99122284  0.96607849  0.26600162  1
  Li  Li40  1  0.50877716  0.46607849  0.76600162  1
  Li  Li41  1  0.99122284  0.53392151  0.26600162  1
  Li  Li42  1  0.49122284  0.96607849  0.23399838  1
  Li  Li43  1  0.00877716  0.03392151  0.73399838  1
  Li  Li44  1  0.38599619  0.25000000  0.03497431  1
  Li  Li45  1  0.11400381  0.75000000  0.53497431  1
  Li  Li46  1  0.61400381  0.75000000  0.96502569  1
  Li  Li47  1  0.88599619  0.25000000  0.46502569  1
