# generated using pymatgen
data_LiF
_symmetry_space_group_name_H-M   'P 1'
_cell_length_a   8.16311258
_cell_length_b   10.41125580
_cell_length_c   9.24095039
_cell_angle_alpha   90.00000000
_cell_angle_beta   90.00000000
_cell_angle_gamma   90.00000000
_symmetry_Int_Tables_number   1
_chemical_formula_structural   LiF
_chemical_formula_sum   'Li26 F26'
_cell_volume   785.37223120
_cell_formula_units_Z   26
loop_
 _symmetry_equiv_pos_site_id
 _symmetry_equiv_pos_as_xyz
  1  'x, y, z'
loop_
 _atom_site_type_symbol
 _atom_site_label
 _atom_site_symmetry_multiplicity
 _atom_site_fract_x
 _atom_site_fract_y
 _atom_site_fract_z
 _atom_site_occupancy
  F  F0  1  0.00000000  0.50000000  0.00000000  1
  F  F1  1  0.50000000  0.00000000  0.50000000  1
  F  F2  1  0.35050006  0.98427702  0.00000000  1
  F  F3  1  0.64949994  0.01572298  0.00000000  1
  F  F4  1  0.14949994  0.48427702  0.50000000  1
  F  F5  1  0.85050006  0.51572298  0.50000000  1
  F  F6  1  0.37032418  0.94103422  0.44359571  1
  F  F7  1  -0.37032418  -0.94103422  0.44359571  1
  F  F8  1  0.12967582  1.44103422  0.05640429  1
  F  F9  1  0.87032418  -0.44103422  0.05640429  1
  F  F10  1  -0.37032418  -0.94103422  -0.44359571  1
  F  F11  1  0.37032418  0.94103422  -0.44359571  1
  F  F12  1  0.87032418  -0.44103422  0.94359571  1
  F  F13  1  0.12967582  1.44103422  0.94359571  1
  F  F14  1  0.44933505  0.00594909  0.00000000  1
  F  F15  1  0.55066495  0.99405091  0.00000000  1
  F  F16  1  0.05066495  0.50594909  0.50000000  1
  F  F17  1  0.94933505  0.49405091  0.50000000  1
  F  F18  1  0.57335139  0.49227452  0.64814802  1
  F  F19  1  0.42664861  0.50772548  0.64814802  1
  F  F20  1  0.92664861  0.99227452  0.85185198  1
  F  F21  1  0.07335139  0.00772548  0.85185198  1
  F  F22  1  0.42664861  0.50772548  0.35185198  1
  F  F23  1  0.57335139  0.49227452  0.35185198  1
  F  F24  1  0.07335139  0.00772548  0.14814802  1
  F  F25  1  0.92664861  0.99227452  0.14814802  1
  Li  Li26  1  0.28174914  0.58685786  0.28562954  1
  Li  Li27  1  0.71825086  0.41314214  0.28562954  1
  Li  Li28  1  0.21825086  0.08685786  0.21437046  1
  Li  Li29  1  0.78174914  0.91314214  0.21437046  1
  Li  Li30  1  0.71825086  0.41314214  0.71437046  1
  Li  Li31  1  0.28174914  0.58685786  0.71437046  1
  Li  Li32  1  0.78174914  0.91314214  0.78562954  1
  Li  Li33  1  0.21825086  0.08685786  0.78562954  1
  Li  Li34  1  0.32461722  0.89706876  0.00000000  1
  Li  Li35  1  0.67538278  0.10293124  0.00000000  1
  Li  Li36  1  0.17538278  0.39706876  0.50000000  1
  Li  Li37  1  0.82461722  0.60293124  0.50000000  1
  Li  Li38  1  0.54555198  0.55036117  0.08506982  1
  Li  Li39  1  0.45444802  0.44963883  0.08506982  1
  Li  Li40  1  0.95444802  0.05036117  0.41493018  1
  Li  Li41  1  0.04555198  0.94963883  0.41493018  1
  Li  Li42  1  0.45444802  0.44963883  0.91493018  1
  Li  Li43  1  0.54555198  0.55036117  0.91493018  1
  Li  Li44  1  0.04555198  0.94963883  0.58506982  1
  Li  Li45  1  0.95444802  0.05036117  0.58506982  1
  Li  Li46  1  0.35974874  0.72881247  0.00000000  1
  Li  Li47  1  0.64025126  0.27118753  -0.00000000  1
  Li  Li48  1  0.14025126  0.22881247  0.50000000  1
  Li  Li49  1  0.85974874  0.77118753  0.50000000  1
  Li  Li50  1  0.00000000  0.00000000  0.00000000  1
  Li  Li51  1  0.50000000  0.50000000  0.50000000  1
