# generated using pymatgen
data_Li3Y2P3Se2
_symmetry_space_group_name_H-M   'P 1'
_cell_length_a   5.41753659
_cell_length_b   5.57681344
_cell_length_c   7.17040894
_cell_angle_alpha   93.95342591
_cell_angle_beta   98.60973973
_cell_angle_gamma   105.87934063
_symmetry_Int_Tables_number   1
_chemical_formula_structural   Li3Y2P3Se2
_chemical_formula_sum   'Li3 Y2 P3 Se2'
_cell_volume   204.64119592
_cell_formula_units_Z   1
loop_
 _symmetry_equiv_pos_site_id
 _symmetry_equiv_pos_as_xyz
  1  'x, y, z'
loop_
 _atom_site_type_symbol
 _atom_site_label
 _atom_site_symmetry_multiplicity
 _atom_site_fract_x
 _atom_site_fract_y
 _atom_site_fract_z
 _atom_site_occupancy
  P  P0  1  0.00000000  0.00000000  0.00000000  1
  P  P1  1  0.50000000  0.50000000  0.50000000  1
  P  P2  1  0.25000000  0.25000000  0.25000000  1
  Se  Se3  1  0.75000000  0.25000000  0.00000000  1
  Se  Se4  1  0.25000000  0.75000000  0.50000000  1
  Li  Li5  1  0.55799377  0.15716858  0.11192726  1
  Li  Li6  1  0.71962348  0.20548335  0.28790762  1
  Li  Li7  1  0.19935098  0.32178607  0.19379221  1
  Y  Y8  1  0.15907389  0.52187859  0.08002149  1
  Y  Y9  1  0.31000848  0.42777957  0.49590646  1
