# generated using pymatgen
data_LiY2(SbP)2
_symmetry_space_group_name_H-M   'P 1'
_cell_length_a   4.41336152
_cell_length_b   4.49363225
_cell_length_c   5.74768288
_cell_angle_alpha   94.77149068
_cell_angle_beta   96.35345476
_cell_angle_gamma   102.83274860
_symmetry_Int_Tables_number   1
_chemical_formula_structural   LiY2(SbP)2
_chemical_formula_sum   'Li1 Y2 Sb2 P2'
_cell_volume   109.77332922
_cell_formula_units_Z   1
loop_
 _symmetry_equiv_pos_site_id
 _symmetry_equiv_pos_as_xyz
  1  'x, y, z'
loop_
 _atom_site_type_symbol
 _atom_site_label
 _atom_site_symmetry_multiplicity
 _atom_site_fract_x
 _atom_site_fract_y
 _atom_site_fract_z
 _atom_site_occupancy
  P  P0  1  0.12500000  0.12500000  0.12500000  1
  P  P1  1  0.50000000  0.50000000  0.50000000  1
  Li  Li2  1  0.25000000  0.25000000  0.25000000  1
  Y  Y3  1  0.75000000  0.75000000  0.75000000  1
  Y  Y4  1  0.31850136  0.58682340  0.40727536  1
  Sb  Sb5  1  0.95703447  0.51641923  0.56579274  1
  Sb  Sb6  1  0.34717531  0.79201017  0.90326934  1
