# generated using pymatgen
data_LiF
_symmetry_space_group_name_H-M   'P 1'
_cell_length_a   6.21845161
_cell_length_b   10.11912412
_cell_length_c   19.56767667
_cell_angle_alpha   90.00000000
_cell_angle_beta   90.00000000
_cell_angle_gamma   90.00000000
_symmetry_Int_Tables_number   1
_chemical_formula_structural   LiF
_chemical_formula_sum   'Li56 F56'
_cell_volume   1231.30160610
_cell_formula_units_Z   56
loop_
 _symmetry_equiv_pos_site_id
 _symmetry_equiv_pos_as_xyz
  1  'x, y, z'
loop_
 _atom_site_type_symbol
 _atom_site_label
 _atom_site_symmetry_multiplicity
 _atom_site_fract_x
 _atom_site_fract_y
 _atom_site_fract_z
 _atom_site_occupancy
  F  F0  1  0.08144506  0.39589676  0.38691671  1
  F  F1  1  0.41855494  0.60410324  0.88691671  1
  F  F2  1  0.91855494  0.89589676  0.61308329  1
  F  F3  1  0.58144506  0.10410324  0.11308329  1
  F  F4  1  0.91855494  0.60410324  0.61308329  1
  F  F5  1  0.58144506  0.39589676  0.11308329  1
  F  F6  1  0.08144506  0.10410324  0.38691671  1
  F  F7  1  0.41855494  0.89589676  0.88691671  1
  F  F8  1  0.67971574  0.44546333  0.37709403  1
  F  F9  1  0.82028426  0.55453667  0.87709403  1
  F  F10  1  0.32028426  0.94546333  0.62290597  1
  F  F11  1  0.17971574  0.05453667  0.12290597  1
  F  F12  1  0.32028426  0.55453667  0.62290597  1
  F  F13  1  0.17971574  0.44546333  0.12290597  1
  F  F14  1  0.67971574  0.05453667  0.37709403  1
  F  F15  1  0.82028426  0.94546333  0.87709403  1
  F  F16  1  0.60448685  0.56402234  0.87046175  1
  F  F17  1  0.89551315  0.43597766  0.37046175  1
  F  F18  1  0.39551315  0.06402234  0.12953825  1
  F  F19  1  0.10448685  0.93597766  0.62953825  1
  F  F20  1  0.39551315  0.43597766  0.12953825  1
  F  F21  1  0.10448685  0.56402234  0.62953825  1
  F  F22  1  0.60448685  0.93597766  0.87046175  1
  F  F23  1  0.89551315  0.06402234  0.37046175  1
  F  F24  1  0.43235546  0.25000000  0.73371180  1
  F  F25  1  0.06764454  0.75000000  0.23371180  1
  F  F26  1  0.56764454  0.75000000  0.26628820  1
  F  F27  1  0.93235546  0.25000000  0.76628820  1
  F  F28  1  0.11680236  0.66433908  0.85187739  1
  F  F29  1  0.38319764  0.33566092  0.35187739  1
  F  F30  1  0.88319764  0.16433908  0.14812261  1
  F  F31  1  0.61680236  0.83566092  0.64812261  1
  F  F32  1  0.88319764  0.33566092  0.14812261  1
  F  F33  1  0.61680236  0.66433908  0.64812261  1
  F  F34  1  0.11680236  0.83566092  0.85187739  1
  F  F35  1  0.38319764  0.16433908  0.35187739  1
  F  F36  1  0.64619206  0.16952185  0.45322423  1
  F  F37  1  0.85380794  0.83047815  0.95322423  1
  F  F38  1  0.35380794  0.66952185  0.54677577  1
  F  F39  1  0.14619206  0.33047815  0.04677577  1
  F  F40  1  0.35380794  0.83047815  0.54677577  1
  F  F41  1  0.14619206  0.16952185  0.04677577  1
  F  F42  1  0.64619206  0.33047815  0.45322423  1
  F  F43  1  0.85380794  0.66952185  0.95322423  1
  F  F44  1  0.40052685  0.87071444  0.59754067  1
  F  F45  1  0.09947315  0.12928556  0.09754067  1
  F  F46  1  0.59947315  0.37071444  0.40245933  1
  F  F47  1  0.90052685  0.62928556  0.90245933  1
  F  F48  1  0.59947315  0.12928556  0.40245933  1
  F  F49  1  0.90052685  0.87071444  0.90245933  1
  F  F50  1  0.40052685  0.62928556  0.59754067  1
  F  F51  1  0.09947315  0.37071444  0.09754067  1
  F  F52  1  0.89878904  0.25000000  0.22269190  1
  F  F53  1  0.60121096  0.75000000  0.72269190  1
  F  F54  1  0.10121096  0.75000000  0.77730810  1
  F  F55  1  0.39878904  0.25000000  0.27730810  1
  Li  Li56  1  0.00000000  0.00000000  0.00000000  1
  Li  Li57  1  0.50000000  -0.00000000  0.50000000  1
  Li  Li58  1  0.00000000  0.50000000  0.00000000  1
  Li  Li59  1  0.50000000  0.50000000  0.50000000  1
  Li  Li60  1  0.00000000  0.00000000  0.50000000  1
  Li  Li61  1  0.50000000  -0.00000000  0.00000000  1
  Li  Li62  1  0.00000000  0.50000000  0.50000000  1
  Li  Li63  1  0.50000000  0.50000000  0.00000000  1
  Li  Li64  1  0.10611646  0.36313279  0.23119739  1
  Li  Li65  1  0.39388354  -0.36313279  0.73119739  1
  Li  Li66  1  -0.10611646  0.86313279  -0.23119739  1
  Li  Li67  1  0.60611646  0.13686721  0.26880261  1
  Li  Li68  1  -0.10611646  -0.36313279  -0.23119739  1
  Li  Li69  1  0.60611646  0.36313279  0.26880261  1
  Li  Li70  1  0.10611646  0.13686721  0.23119739  1
  Li  Li71  1  0.39388354  0.86313279  0.73119739  1
  Li  Li72  1  0.21117571  0.25000000  0.21449233  1
  Li  Li73  1  0.28882429  0.75000000  0.71449233  1
  Li  Li74  1  0.78882429  0.75000000  0.78550767  1
  Li  Li75  1  0.71117571  0.25000000  0.28550767  1
  Li  Li76  1  0.37664673  0.25000000  0.50975748  1
  Li  Li77  1  0.12335327  0.75000000  0.00975748  1
  Li  Li78  1  0.62335327  0.75000000  0.49024252  1
  Li  Li79  1  0.87664673  0.25000000  0.99024252  1
  Li  Li80  1  0.91604568  0.41269796  0.54291124  1
  Li  Li81  1  0.58395432  0.58730204  0.04291124  1
  Li  Li82  1  0.08395432  0.91269796  0.45708876  1
  Li  Li83  1  0.41604568  0.08730204  0.95708876  1
  Li  Li84  1  0.08395432  0.58730204  0.45708876  1
  Li  Li85  1  0.41604568  0.41269796  0.95708876  1
  Li  Li86  1  0.91604568  0.08730204  0.54291124  1
  Li  Li87  1  0.58395432  0.91269796  0.04291124  1
  Li  Li88  1  0.14824671  0.42834951  0.46325966  1
  Li  Li89  1  0.35175329  0.57165049  0.96325966  1
  Li  Li90  1  0.85175329  0.92834951  0.53674034  1
  Li  Li91  1  0.64824671  0.07165049  0.03674034  1
  Li  Li92  1  0.85175329  0.57165049  0.53674034  1
  Li  Li93  1  0.64824671  0.42834951  0.03674034  1
  Li  Li94  1  0.14824671  0.07165049  0.46325966  1
  Li  Li95  1  0.35175329  0.92834951  0.96325966  1
  Li  Li96  1  0.07596857  0.05615651  0.76729030  1
  Li  Li97  1  0.42403143  0.94384349  0.26729030  1
  Li  Li98  1  0.92403143  0.55615651  0.23270970  1
  Li  Li99  1  0.57596857  0.44384349  0.73270970  1
  Li  Li100  1  0.92403143  0.94384349  0.23270970  1
  Li  Li101  1  0.57596857  0.05615651  0.73270970  1
  Li  Li102  1  0.07596857  0.44384349  0.76729030  1
  Li  Li103  1  0.42403143  0.55615651  0.26729030  1
  Li  Li104  1  0.07797136  0.15595440  0.60030863  1
  Li  Li105  1  0.42202864  0.84404560  0.10030863  1
  Li  Li106  1  0.92202864  0.65595440  0.39969137  1
  Li  Li107  1  0.57797136  0.34404560  0.89969137  1
  Li  Li108  1  0.92202864  0.84404560  0.39969137  1
  Li  Li109  1  0.57797136  0.15595440  0.89969137  1
  Li  Li110  1  0.07797136  0.34404560  0.60030863  1
  Li  Li111  1  0.42202864  0.65595440  0.10030863  1
