# generated using pymatgen
data_LiF
_symmetry_space_group_name_H-M   'P 1'
_cell_length_a   7.73518497
_cell_length_b   7.73518497
_cell_length_c   20.56476294
_cell_angle_alpha   90.00000000
_cell_angle_beta   90.00000000
_cell_angle_gamma   90.00000000
_symmetry_Int_Tables_number   1
_chemical_formula_structural   LiF
_chemical_formula_sum   'Li64 F64'
_cell_volume   1230.45323918
_cell_formula_units_Z   64
loop_
 _symmetry_equiv_pos_site_id
 _symmetry_equiv_pos_as_xyz
  1  'x, y, z'
loop_
 _atom_site_type_symbol
 _atom_site_label
 _atom_site_symmetry_multiplicity
 _atom_site_fract_x
 _atom_site_fract_y
 _atom_site_fract_z
 _atom_site_occupancy
  F  F0  1  0.00000000  0.25000000  0.17141925  1
  F  F1  1  0.00000000  0.75000000  0.42141925  1
  F  F2  1  0.50000000  0.25000000  0.82858075  1
  F  F3  1  0.50000000  0.75000000  0.57858075  1
  F  F4  1  0.00000000  0.75000000  0.82858075  1
  F  F5  1  0.00000000  0.25000000  0.57858075  1
  F  F6  1  0.50000000  0.75000000  0.17141925  1
  F  F7  1  0.50000000  0.25000000  0.42141925  1
  F  F8  1  0.50000000  0.75000000  0.67141925  1
  F  F9  1  0.50000000  0.25000000  0.92141925  1
  F  F10  1  0.00000000  0.75000000  0.32858075  1
  F  F11  1  0.00000000  0.25000000  0.07858075  1
  F  F12  1  0.50000000  0.25000000  0.32858075  1
  F  F13  1  0.50000000  0.75000000  0.07858075  1
  F  F14  1  0.00000000  0.25000000  0.67141925  1
  F  F15  1  0.00000000  0.75000000  0.92141925  1
  F  F16  1  0.23146836  0.48146836  0.12500000  1
  F  F17  1  0.26853164  0.51853164  0.62500000  1
  F  F18  1  0.76853164  0.98146836  0.37500000  1
  F  F19  1  0.73146836  0.01853164  0.87500000  1
  F  F20  1  0.76853164  0.51853164  0.87500000  1
  F  F21  1  0.73146836  0.48146836  0.37500000  1
  F  F22  1  0.23146836  0.01853164  0.62500000  1
  F  F23  1  0.26853164  0.98146836  0.12500000  1
  F  F24  1  0.73146836  0.98146836  0.62500000  1
  F  F25  1  0.76853164  0.01853164  0.12500000  1
  F  F26  1  0.26853164  0.48146836  0.87500000  1
  F  F27  1  0.23146836  0.51853164  0.37500000  1
  F  F28  1  0.26853164  0.01853164  0.37500000  1
  F  F29  1  0.23146836  0.98146836  0.87500000  1
  F  F30  1  0.73146836  0.51853164  0.12500000  1
  F  F31  1  0.76853164  0.48146836  0.62500000  1
  F  F32  1  0.31385735  0.64848426  0.77054153  1
  F  F33  1  0.18614265  -0.64848426  1.27054153  1
  F  F34  1  -0.39848426  1.06385735  1.02054153  1
  F  F35  1  0.89848426  -0.06385735  1.52054153  1
  F  F36  1  0.18614265  0.64848426  -0.77054153  1
  F  F37  1  0.31385735  -0.64848426  -0.27054153  1
  F  F38  1  0.89848426  1.06385735  -0.02054153  1
  F  F39  1  -0.39848426  -0.06385735  -0.52054153  1
  F  F40  1  -0.31385735  -0.64848426  -0.77054153  1
  F  F41  1  0.81385735  0.64848426  -0.27054153  1
  F  F42  1  1.39848426  -0.06385735  -0.02054153  1
  F  F43  1  0.10151574  1.06385735  -0.52054153  1
  F  F44  1  0.81385735  -0.64848426  0.77054153  1
  F  F45  1  -0.31385735  0.64848426  1.27054153  1
  F  F46  1  0.10151574  -0.06385735  1.02054153  1
  F  F47  1  1.39848426  1.06385735  1.52054153  1
  F  F48  1  0.81385735  1.14848426  1.27054153  1
  F  F49  1  0.68614265  -0.14848426  1.77054153  1
  F  F50  1  0.10151574  1.56385735  1.52054153  1
  F  F51  1  1.39848426  0.43614265  2.02054153  1
  F  F52  1  0.68614265  1.14848426  -0.27054153  1
  F  F53  1  0.81385735  -0.14848426  0.22945847  1
  F  F54  1  1.39848426  1.56385735  0.47945847  1
  F  F55  1  0.10151574  0.43614265  -0.02054153  1
  F  F56  1  0.18614265  -0.14848426  -0.27054153  1
  F  F57  1  1.31385735  1.14848426  0.22945847  1
  F  F58  1  1.89848426  0.43614265  0.47945847  1
  F  F59  1  0.60151574  1.56385735  -0.02054153  1
  F  F60  1  1.31385735  -0.14848426  1.27054153  1
  F  F61  1  0.18614265  1.14848426  1.77054153  1
  F  F62  1  0.60151574  0.43614265  1.52054153  1
  F  F63  1  1.89848426  1.56385735  2.02054153  1
  Li  Li64  1  0.95634795  0.02774677  0.59058960  1
  Li  Li65  1  0.54365205  0.97225323  0.09058960  1
  Li  Li66  1  0.22225323  0.70634795  0.84058960  1
  Li  Li67  1  0.27774677  0.29365205  0.34058960  1
  Li  Li68  1  0.54365205  0.02774677  0.40941040  1
  Li  Li69  1  0.95634795  0.97225323  0.90941040  1
  Li  Li70  1  0.27774677  0.70634795  0.15941040  1
  Li  Li71  1  0.22225323  0.29365205  0.65941040  1
  Li  Li72  1  0.04365205  0.97225323  0.40941040  1
  Li  Li73  1  0.45634795  0.02774677  0.90941040  1
  Li  Li74  1  0.77774677  0.29365205  0.15941040  1
  Li  Li75  1  0.72225323  0.70634795  0.65941040  1
  Li  Li76  1  0.45634795  0.97225323  0.59058960  1
  Li  Li77  1  0.04365205  0.02774677  0.09058960  1
  Li  Li78  1  0.72225323  0.29365205  0.84058960  1
  Li  Li79  1  0.77774677  0.70634795  0.34058960  1
  Li  Li80  1  0.45634795  0.52774677  0.09058960  1
  Li  Li81  1  0.04365205  0.47225323  0.59058960  1
  Li  Li82  1  0.72225323  0.20634795  0.34058960  1
  Li  Li83  1  0.77774677  0.79365205  0.84058960  1
  Li  Li84  1  0.04365205  0.52774677  0.90941040  1
  Li  Li85  1  0.45634795  0.47225323  0.40941040  1
  Li  Li86  1  0.77774677  0.20634795  0.65941040  1
  Li  Li87  1  0.72225323  0.79365205  0.15941040  1
  Li  Li88  1  0.54365205  0.47225323  0.90941040  1
  Li  Li89  1  0.95634795  0.52774677  0.40941040  1
  Li  Li90  1  0.27774677  0.79365205  0.65941040  1
  Li  Li91  1  0.22225323  0.20634795  0.15941040  1
  Li  Li92  1  0.95634795  0.47225323  0.09058960  1
  Li  Li93  1  0.54365205  0.52774677  0.59058960  1
  Li  Li94  1  0.22225323  0.79365205  0.34058960  1
  Li  Li95  1  0.27774677  0.20634795  0.84058960  1
  Li  Li96  1  0.56213302  0.00000000  0.25000000  1
  Li  Li97  1  0.93786698  0.00000000  0.75000000  1
  Li  Li98  1  0.25000000  0.31213302  0.50000000  1
  Li  Li99  1  0.25000000  0.68786698  -0.00000000  1
  Li  Li100  1  0.43786698  0.00000000  0.75000000  1
  Li  Li101  1  0.06213302  0.00000000  0.25000000  1
  Li  Li102  1  0.75000000  0.68786698  0.50000000  1
  Li  Li103  1  0.75000000  0.31213302  -0.00000000  1
  Li  Li104  1  0.06213302  0.50000000  0.75000000  1
  Li  Li105  1  0.43786698  0.50000000  0.25000000  1
  Li  Li106  1  0.75000000  0.81213302  -0.00000000  1
  Li  Li107  1  0.75000000  0.18786698  0.50000000  1
  Li  Li108  1  0.93786698  0.50000000  0.25000000  1
  Li  Li109  1  0.56213302  0.50000000  0.75000000  1
  Li  Li110  1  0.25000000  0.18786698  0.00000000  1
  Li  Li111  1  0.25000000  0.81213302  0.50000000  1
  Li  Li112  1  0.75279049  0.00000000  0.25000000  1
  Li  Li113  1  0.74720951  0.00000000  0.75000000  1
  Li  Li114  1  0.25000000  0.50279049  0.50000000  1
  Li  Li115  1  0.25000000  0.49720951  0.00000000  1
  Li  Li116  1  0.24720951  0.00000000  0.75000000  1
  Li  Li117  1  0.25279049  0.00000000  0.25000000  1
  Li  Li118  1  0.75000000  0.49720951  0.50000000  1
  Li  Li119  1  0.75000000  0.50279049  -0.00000000  1
  Li  Li120  1  0.25279049  0.50000000  0.75000000  1
  Li  Li121  1  0.24720951  0.50000000  0.25000000  1
  Li  Li122  1  0.75000000  0.00279049  -0.00000000  1
  Li  Li123  1  0.75000000  0.99720951  0.50000000  1
  Li  Li124  1  0.74720951  0.50000000  0.25000000  1
  Li  Li125  1  0.75279049  0.50000000  0.75000000  1
  Li  Li126  1  0.25000000  0.99720951  0.00000000  1
  Li  Li127  1  0.25000000  0.00279049  0.50000000  1
