# generated using pymatgen
data_LiY2Cu3PSe
_symmetry_space_group_name_H-M   'P 1'
_cell_length_a   4.12656531
_cell_length_b   4.33612370
_cell_length_c   6.16464054
_cell_angle_alpha   95.76632430
_cell_angle_beta   100.45825458
_cell_angle_gamma   109.86830297
_symmetry_Int_Tables_number   1
_chemical_formula_structural   LiY2Cu3PSe
_chemical_formula_sum   'Li1 Y2 Cu3 P1 Se1'
_cell_volume   100.43612873
_cell_formula_units_Z   1
loop_
 _symmetry_equiv_pos_site_id
 _symmetry_equiv_pos_as_xyz
  1  'x, y, z'
loop_
 _atom_site_type_symbol
 _atom_site_label
 _atom_site_symmetry_multiplicity
 _atom_site_fract_x
 _atom_site_fract_y
 _atom_site_fract_z
 _atom_site_occupancy
  Se  Se0  1  0.00000000  0.00000000  0.00000000  1
  Cu  Cu1  1  0.50000000  0.50000000  0.50000000  1
  Cu  Cu2  1  0.25000000  0.25000000  0.25000000  1
  Cu  Cu3  1  0.75000000  0.25000000  0.00000000  1
  P  P4  1  0.25000000  0.75000000  0.50000000  1
  Li  Li5  1  0.59853246  0.54652345  0.71759384  1
  Y  Y6  1  0.81634169  0.18812052  0.19321218  1
  Y  Y7  1  0.35010722  0.73559960  0.58911296  1
