# generated using pymatgen
data_LiCaF3
_symmetry_space_group_name_H-M   'P 1'
_cell_length_a   10.63193139
_cell_length_b   10.63193139
_cell_length_c   17.71593095
_cell_angle_alpha   90.00000000
_cell_angle_beta   90.00000000
_cell_angle_gamma   120.00000000
_symmetry_Int_Tables_number   1
_chemical_formula_structural   LiCaF3
_chemical_formula_sum   'Li18 Ca18 F54'
_cell_volume   1734.27890319
_cell_formula_units_Z   18
loop_
 _symmetry_equiv_pos_site_id
 _symmetry_equiv_pos_as_xyz
  1  'x, y, z'
loop_
 _atom_site_type_symbol
 _atom_site_label
 _atom_site_symmetry_multiplicity
 _atom_site_fract_x
 _atom_site_fract_y
 _atom_site_fract_z
 _atom_site_occupancy
  Ca  Ca0  1  0.58432973  0.00000000  0.25000000  1
  Ca  Ca1  1  0.00000000  0.58432973  0.25000000  1
  Ca  Ca2  1  0.41567027  0.41567027  0.25000000  1
  Ca  Ca3  1  0.41567027  0.00000000  0.75000000  1
  Ca  Ca4  1  0.00000000  0.41567027  0.75000000  1
  Ca  Ca5  1  0.58432973  0.58432973  0.75000000  1
  Ca  Ca6  1  0.25099640  0.33333333  0.58333333  1
  Ca  Ca7  1  0.66666667  0.91766306  0.58333333  1
  Ca  Ca8  1  0.08233694  0.74900360  0.58333333  1
  Ca  Ca9  1  0.08233694  0.33333333  0.08333333  1
  Ca  Ca10  1  0.66666667  0.74900360  0.08333333  1
  Ca  Ca11  1  0.25099640  0.91766306  0.08333333  1
  Ca  Ca12  1  0.91766306  0.66666667  0.91666667  1
  Ca  Ca13  1  0.33333333  0.25099640  0.91666667  1
  Ca  Ca14  1  0.74900360  0.08233694  0.91666667  1
  Ca  Ca15  1  0.74900360  0.66666667  0.41666667  1
  Ca  Ca16  1  0.33333333  0.08233694  0.41666667  1
  Ca  Ca17  1  0.91766306  0.25099640  0.41666667  1
  F  F18  1  0.50000000  0.00000000  0.00000000  1
  F  F19  1  0.00000000  0.50000000  0.00000000  1
  F  F20  1  0.50000000  0.50000000  0.00000000  1
  F  F21  1  0.00000000  0.50000000  0.50000000  1
  F  F22  1  0.50000000  0.00000000  0.50000000  1
  F  F23  1  0.50000000  0.50000000  0.50000000  1
  F  F24  1  0.16666667  0.33333333  0.33333333  1
  F  F25  1  0.66666667  0.83333333  0.33333333  1
  F  F26  1  0.16666667  0.83333333  0.33333333  1
  F  F27  1  0.66666667  0.83333333  0.83333333  1
  F  F28  1  0.16666667  0.33333333  0.83333333  1
  F  F29  1  0.16666667  0.83333333  0.83333333  1
  F  F30  1  0.83333333  0.66666667  0.66666667  1
  F  F31  1  0.33333333  0.16666667  0.66666667  1
  F  F32  1  0.83333333  0.16666667  0.66666667  1
  F  F33  1  0.33333333  0.16666667  0.16666667  1
  F  F34  1  0.83333333  0.66666667  0.16666667  1
  F  F35  1  0.83333333  0.16666667  0.16666667  1
  F  F36  1  0.44988292  0.71703756  0.24826939  1
  F  F37  1  -0.71703756  -0.26715464  0.24826939  1
  F  F38  1  0.26715464  -0.44988292  0.24826939  1
  F  F39  1  0.71703756  0.44988292  0.25173061  1
  F  F40  1  -0.26715464  -0.71703756  0.25173061  1
  F  F41  1  -0.44988292  0.26715464  0.25173061  1
  F  F42  1  -0.44988292  -0.71703756  -0.24826939  1
  F  F43  1  0.71703756  0.26715464  -0.24826939  1
  F  F44  1  -0.26715464  0.44988292  -0.24826939  1
  F  F45  1  -0.71703756  -0.44988292  0.74826939  1
  F  F46  1  0.26715464  0.71703756  0.74826939  1
  F  F47  1  0.44988292  -0.26715464  0.74826939  1
  F  F48  1  1.11654959  1.05037089  0.58160273  1
  F  F49  1  -0.05037089  0.06617870  0.58160273  1
  F  F50  1  0.93382130  -0.11654959  0.58160273  1
  F  F51  1  1.38370423  0.78321626  0.58506394  1
  F  F52  1  0.39951203  -0.38370423  0.58506394  1
  F  F53  1  0.21678374  0.60048797  0.58506394  1
  F  F54  1  0.21678374  -0.38370423  0.08506394  1
  F  F55  1  1.38370423  0.60048797  0.08506394  1
  F  F56  1  0.39951203  0.78321626  0.08506394  1
  F  F57  1  -0.05037089  -0.11654959  1.08160273  1
  F  F58  1  0.93382130  1.05037089  1.08160273  1
  F  F59  1  1.11654959  0.06617870  1.08160273  1
  F  F60  1  0.78321626  1.38370423  0.91493606  1
  F  F61  1  -0.38370423  0.39951203  0.91493606  1
  F  F62  1  0.60048797  0.21678374  0.91493606  1
  F  F63  1  1.05037089  1.11654959  0.91839727  1
  F  F64  1  0.06617870  -0.05037089  0.91839727  1
  F  F65  1  -0.11654959  0.93382130  0.91839727  1
  F  F66  1  -0.11654959  -0.05037089  0.41839727  1
  F  F67  1  1.05037089  0.93382130  0.41839727  1
  F  F68  1  0.06617870  1.11654959  0.41839727  1
  F  F69  1  -0.38370423  0.21678374  1.41493606  1
  F  F70  1  0.60048797  1.38370423  1.41493606  1
  F  F71  1  0.78321626  0.39951203  1.41493606  1
  Li  Li72  1  0.17945178  0.00000000  0.25000000  1
  Li  Li73  1  0.00000000  0.17945178  0.25000000  1
  Li  Li74  1  0.82054822  0.82054822  0.25000000  1
  Li  Li75  1  0.82054822  0.00000000  0.75000000  1
  Li  Li76  1  0.00000000  0.82054822  0.75000000  1
  Li  Li77  1  0.17945178  0.17945178  0.75000000  1
  Li  Li78  1  0.84611844  0.33333333  0.58333333  1
  Li  Li79  1  0.66666667  0.51278511  0.58333333  1
  Li  Li80  1  0.48721489  0.15388156  0.58333333  1
  Li  Li81  1  0.48721489  0.33333333  0.08333333  1
  Li  Li82  1  0.66666667  0.15388156  0.08333333  1
  Li  Li83  1  0.84611844  0.51278511  0.08333333  1
  Li  Li84  1  0.51278511  0.66666667  0.91666667  1
  Li  Li85  1  0.33333333  0.84611844  0.91666667  1
  Li  Li86  1  0.15388156  0.48721489  0.91666667  1
  Li  Li87  1  0.15388156  0.66666667  0.41666667  1
  Li  Li88  1  0.33333333  0.48721489  0.41666667  1
  Li  Li89  1  0.51278511  0.84611844  0.41666667  1
