# generated using pymatgen
data_LiF
_symmetry_space_group_name_H-M   'P 1'
_cell_length_a   15.66796674
_cell_length_b   7.45623630
_cell_length_c   8.48153898
_cell_angle_alpha   90.00000000
_cell_angle_beta   90.00000000
_cell_angle_gamma   90.00000000
_symmetry_Int_Tables_number   1
_chemical_formula_structural   LiF
_chemical_formula_sum   'Li36 F36'
_cell_volume   990.84783809
_cell_formula_units_Z   36
loop_
 _symmetry_equiv_pos_site_id
 _symmetry_equiv_pos_as_xyz
  1  'x, y, z'
loop_
 _atom_site_type_symbol
 _atom_site_label
 _atom_site_symmetry_multiplicity
 _atom_site_fract_x
 _atom_site_fract_y
 _atom_site_fract_z
 _atom_site_occupancy
  F  F0  1  0.00000000  0.00000000  0.00000000  1
  F  F1  1  0.50000000  0.50000000  0.50000000  1
  F  F2  1  0.40438128  0.90231523  0.76586784  1
  F  F3  1  -0.40438128  -0.90231523  0.76586784  1
  F  F4  1  0.09561872  1.40231523  -0.26586784  1
  F  F5  1  0.90438128  -0.40231523  -0.26586784  1
  F  F6  1  -0.40438128  -0.90231523  -0.76586784  1
  F  F7  1  0.40438128  0.90231523  -0.76586784  1
  F  F8  1  0.90438128  -0.40231523  1.26586784  1
  F  F9  1  0.09561872  1.40231523  1.26586784  1
  F  F10  1  0.00000000  0.00000000  0.28732005  1
  F  F11  1  0.50000000  0.50000000  0.21267995  1
  F  F12  1  0.00000000  0.00000000  0.71267995  1
  F  F13  1  0.50000000  0.50000000  0.78732005  1
  F  F14  1  0.45286139  0.35710535  0.85592754  1
  F  F15  1  0.54713861  0.64289465  0.85592754  1
  F  F16  1  0.04713861  0.85710535  0.64407246  1
  F  F17  1  0.95286139  0.14289465  0.64407246  1
  F  F18  1  0.54713861  0.64289465  0.14407246  1
  F  F19  1  0.45286139  0.35710535  0.14407246  1
  F  F20  1  0.95286139  0.14289465  0.35592754  1
  F  F21  1  0.04713861  0.85710535  0.35592754  1
  F  F22  1  0.00000000  0.50000000  0.00000000  1
  F  F23  1  0.50000000  0.00000000  0.50000000  1
  F  F24  1  0.82848191  0.23041521  0.88961172  1
  F  F25  1  0.17151809  0.76958479  0.88961172  1
  F  F26  1  0.67151809  0.73041521  0.61038828  1
  F  F27  1  0.32848191  0.26958479  0.61038828  1
  F  F28  1  0.17151809  0.76958479  0.11038828  1
  F  F29  1  0.82848191  0.23041521  0.11038828  1
  F  F30  1  0.32848191  0.26958479  0.38961172  1
  F  F31  1  0.67151809  0.73041521  0.38961172  1
  F  F32  1  0.00000000  0.00000000  0.64020499  1
  F  F33  1  0.50000000  0.50000000  0.85979501  1
  F  F34  1  0.00000000  0.00000000  0.35979501  1
  F  F35  1  0.50000000  0.50000000  0.14020499  1
  Li  Li36  1  0.00000000  0.00000000  0.50000000  1
  Li  Li37  1  0.50000000  0.50000000  -0.00000000  1
  Li  Li38  1  0.43420627  0.29598598  0.38417095  1
  Li  Li39  1  0.56579373  0.70401402  0.38417095  1
  Li  Li40  1  0.06579373  0.79598598  0.11582905  1
  Li  Li41  1  0.93420627  0.20401402  0.11582905  1
  Li  Li42  1  0.56579373  0.70401402  0.61582905  1
  Li  Li43  1  0.43420627  0.29598598  0.61582905  1
  Li  Li44  1  0.93420627  0.20401402  0.88417095  1
  Li  Li45  1  0.06579373  0.79598598  0.88417095  1
  Li  Li46  1  0.00000000  0.50000000  0.50000000  1
  Li  Li47  1  0.50000000  0.00000000  0.00000000  1
  Li  Li48  1  0.46239588  0.73806772  0.32200810  1
  Li  Li49  1  0.53760412  0.26193228  0.32200810  1
  Li  Li50  1  0.03760412  0.23806772  0.17799190  1
  Li  Li51  1  0.96239588  0.76193228  0.17799190  1
  Li  Li52  1  0.53760412  0.26193228  0.67799190  1
  Li  Li53  1  0.46239588  0.73806772  0.67799190  1
  Li  Li54  1  0.96239588  0.76193228  0.82200810  1
  Li  Li55  1  0.03760412  0.23806772  0.82200810  1
  Li  Li56  1  0.16031938  0.59588489  0.37759178  1
  Li  Li57  1  0.83968062  0.40411511  0.37759178  1
  Li  Li58  1  0.33968062  0.09588489  0.12240822  1
  Li  Li59  1  0.66031938  0.90411511  0.12240822  1
  Li  Li60  1  0.83968062  0.40411511  0.62240822  1
  Li  Li61  1  0.16031938  0.59588489  0.62240822  1
  Li  Li62  1  0.66031938  0.90411511  0.87759178  1
  Li  Li63  1  0.33968062  0.09588489  0.87759178  1
  Li  Li64  1  0.18996809  0.93099601  -0.00000000  1
  Li  Li65  1  0.81003191  0.06900399  -0.00000000  1
  Li  Li66  1  0.31003191  0.43099601  0.50000000  1
  Li  Li67  1  0.68996809  0.56900399  0.50000000  1
  Li  Li68  1  0.00000000  0.50000000  0.79288360  1
  Li  Li69  1  0.50000000  0.00000000  0.70711640  1
  Li  Li70  1  0.00000000  0.50000000  0.20711640  1
  Li  Li71  1  0.50000000  0.00000000  0.29288360  1
