# generated using pymatgen
data_LiF
_symmetry_space_group_name_H-M   'P 1'
_cell_length_a   7.01289480
_cell_length_b   6.07430393
_cell_length_c   10.02836665
_cell_angle_alpha   90.00000000
_cell_angle_beta   90.00000000
_cell_angle_gamma   90.00000000
_symmetry_Int_Tables_number   1
_chemical_formula_structural   LiF
_chemical_formula_sum   'Li24 F24'
_cell_volume   427.19292010
_cell_formula_units_Z   24
loop_
 _symmetry_equiv_pos_site_id
 _symmetry_equiv_pos_as_xyz
  1  'x, y, z'
loop_
 _atom_site_type_symbol
 _atom_site_label
 _atom_site_symmetry_multiplicity
 _atom_site_fract_x
 _atom_site_fract_y
 _atom_site_fract_z
 _atom_site_occupancy
  F  F0  1  0.51330475  0.65622301  0.19460173  1
  F  F1  1  0.98669525  0.34377699  0.69460173  1
  F  F2  1  0.48669525  0.15622301  0.80539827  1
  F  F3  1  0.01330475  0.84377699  0.30539827  1
  F  F4  1  0.48669525  0.34377699  0.80539827  1
  F  F5  1  0.01330475  0.65622301  0.30539827  1
  F  F6  1  0.51330475  0.84377699  0.19460173  1
  F  F7  1  0.98669525  0.15622301  0.69460173  1
  F  F8  1  0.79430740  0.18066034  0.74574343  1
  F  F9  1  0.70569260  0.81933966  0.24574343  1
  F  F10  1  0.20569260  0.68066034  0.25425657  1
  F  F11  1  0.29430740  0.31933966  0.75425657  1
  F  F12  1  0.20569260  0.81933966  0.25425657  1
  F  F13  1  0.29430740  0.18066034  0.75425657  1
  F  F14  1  0.79430740  0.31933966  0.74574343  1
  F  F15  1  0.70569260  0.68066034  0.24574343  1
  F  F16  1  0.25135324  0.03467549  0.46712278  1
  F  F17  1  0.24864676  0.96532451  0.96712278  1
  F  F18  1  0.74864676  0.53467549  0.53287722  1
  F  F19  1  0.75135324  0.46532451  0.03287722  1
  F  F20  1  0.74864676  0.96532451  0.53287722  1
  F  F21  1  0.75135324  0.03467549  0.03287722  1
  F  F22  1  0.25135324  0.46532451  0.46712278  1
  F  F23  1  0.24864676  0.53467549  0.96712278  1
  Li  Li24  1  0.00000000  0.00000000  0.50000000  1
  Li  Li25  1  0.50000000  0.00000000  0.00000000  1
  Li  Li26  1  0.00000000  0.50000000  0.50000000  1
  Li  Li27  1  0.50000000  0.50000000  0.00000000  1
  Li  Li28  1  0.12008634  0.89570901  0.36691847  1
  Li  Li29  1  0.37991366  -0.89570901  0.86691847  1
  Li  Li30  1  -0.12008634  1.39570901  -0.36691847  1
  Li  Li31  1  0.62008634  -0.39570901  0.13308153  1
  Li  Li32  1  -0.12008634  -0.89570901  -0.36691847  1
  Li  Li33  1  0.62008634  0.89570901  0.13308153  1
  Li  Li34  1  0.12008634  -0.39570901  0.36691847  1
  Li  Li35  1  0.37991366  1.39570901  0.86691847  1
  Li  Li36  1  0.59089807  0.53063506  0.79688114  1
  Li  Li37  1  0.90910193  0.46936494  0.29688114  1
  Li  Li38  1  0.40910193  0.03063506  0.20311886  1
  Li  Li39  1  0.09089807  0.96936494  0.70311886  1
  Li  Li40  1  0.40910193  0.46936494  0.20311886  1
  Li  Li41  1  0.09089807  0.53063506  0.70311886  1
  Li  Li42  1  0.59089807  0.96936494  0.79688114  1
  Li  Li43  1  0.90910193  0.03063506  0.29688114  1
  Li  Li44  1  0.00000000  0.00000000  0.00000000  1
  Li  Li45  1  0.50000000  0.00000000  0.50000000  1
  Li  Li46  1  0.00000000  0.50000000  0.00000000  1
  Li  Li47  1  0.50000000  0.50000000  0.50000000  1
