# generated using pymatgen
data_LiF
_symmetry_space_group_name_H-M   'P 1'
_cell_length_a   8.15486162
_cell_length_b   10.82731682
_cell_length_c   10.02120234
_cell_angle_alpha   90.00000000
_cell_angle_beta   90.00000000
_cell_angle_gamma   90.00000000
_symmetry_Int_Tables_number   1
_chemical_formula_structural   LiF
_chemical_formula_sum   'Li24 F24'
_cell_volume   884.82477074
_cell_formula_units_Z   24
loop_
 _symmetry_equiv_pos_site_id
 _symmetry_equiv_pos_as_xyz
  1  'x, y, z'
loop_
 _atom_site_type_symbol
 _atom_site_label
 _atom_site_symmetry_multiplicity
 _atom_site_fract_x
 _atom_site_fract_y
 _atom_site_fract_z
 _atom_site_occupancy
  F  F0  1  0.20164459  0.41377633  0.72596848  1
  F  F1  1  0.29835541  0.58622367  0.22596848  1
  F  F2  1  0.79835541  0.91377633  0.27403152  1
  F  F3  1  0.70164459  0.08622367  0.77403152  1
  F  F4  1  0.79835541  0.58622367  0.27403152  1
  F  F5  1  0.70164459  0.41377633  0.77403152  1
  F  F6  1  0.20164459  0.08622367  0.72596848  1
  F  F7  1  0.29835541  0.91377633  0.22596848  1
  F  F8  1  0.20254105  0.03666902  0.17919842  1
  F  F9  1  0.29745895  0.96333098  0.67919842  1
  F  F10  1  0.79745895  0.53666902  0.82080158  1
  F  F11  1  0.70254105  0.46333098  0.32080158  1
  F  F12  1  0.79745895  0.96333098  0.82080158  1
  F  F13  1  0.70254105  0.03666902  0.32080158  1
  F  F14  1  0.20254105  0.46333098  0.17919842  1
  F  F15  1  0.29745895  0.53666902  0.67919842  1
  F  F16  1  0.42031900  0.80004607  0.48062624  1
  F  F17  1  0.07968100  0.19995393  0.98062624  1
  F  F18  1  0.57968100  0.30004607  0.51937376  1
  F  F19  1  0.92031900  0.69995393  0.01937376  1
  F  F20  1  0.57968100  0.19995393  0.51937376  1
  F  F21  1  0.92031900  0.80004607  0.01937376  1
  F  F22  1  0.42031900  0.69995393  0.48062624  1
  F  F23  1  0.07968100  0.30004607  0.98062624  1
  Li  Li24  1  0.57287233  0.90842223  0.03585972  1
  Li  Li25  1  -0.07287233  -0.90842223  0.53585972  1
  Li  Li26  1  -0.57287233  1.40842223  -0.03585972  1
  Li  Li27  1  1.07287233  -0.40842223  0.46414028  1
  Li  Li28  1  -0.57287233  -0.90842223  -0.03585972  1
  Li  Li29  1  1.07287233  0.90842223  0.46414028  1
  Li  Li30  1  0.57287233  -0.40842223  0.03585972  1
  Li  Li31  1  -0.07287233  1.40842223  0.53585972  1
  Li  Li32  1  0.00000000  0.00000000  0.00000000  1
  Li  Li33  1  0.50000000  0.00000000  0.50000000  1
  Li  Li34  1  0.00000000  0.50000000  0.00000000  1
  Li  Li35  1  0.50000000  0.50000000  0.50000000  1
  Li  Li36  1  0.67470743  0.94014732  0.54885221  1
  Li  Li37  1  0.82529257  0.05985268  0.04885221  1
  Li  Li38  1  0.32529257  0.44014732  0.45114779  1
  Li  Li39  1  0.17470743  0.55985268  0.95114779  1
  Li  Li40  1  0.32529257  0.05985268  0.45114779  1
  Li  Li41  1  0.17470743  0.94014732  0.95114779  1
  Li  Li42  1  0.67470743  0.55985268  0.54885221  1
  Li  Li43  1  0.82529257  0.44014732  0.04885221  1
  Li  Li44  1  0.13014374  0.25000000  0.28749313  1
  Li  Li45  1  0.36985626  0.75000000  0.78749313  1
  Li  Li46  1  0.86985626  0.75000000  0.71250687  1
  Li  Li47  1  0.63014374  0.25000000  0.21250687  1
