# generated using pymatgen
data_Li2AlOF
_symmetry_space_group_name_H-M   'P 1'
_cell_length_a   3.27119897
_cell_length_b   3.31544712
_cell_length_c   5.98826361
_cell_angle_alpha   104.90392159
_cell_angle_beta   110.44301911
_cell_angle_gamma   114.66203194
_symmetry_Int_Tables_number   1
_chemical_formula_structural   Li2AlOF
_chemical_formula_sum   'Li2 Al1 O1 F1'
_cell_volume   48.72120050
_cell_formula_units_Z   1
loop_
 _symmetry_equiv_pos_site_id
 _symmetry_equiv_pos_as_xyz
  1  'x, y, z'
loop_
 _atom_site_type_symbol
 _atom_site_label
 _atom_site_symmetry_multiplicity
 _atom_site_fract_x
 _atom_site_fract_y
 _atom_site_fract_z
 _atom_site_occupancy
  F  F0  1  0.00000000  0.00000000  0.00000000  1
  Al  Al1  1  0.50000000  0.50000000  0.50000000  1
  Li  Li2  1  0.25000000  0.25000000  0.25000000  1
  Li  Li3  1  0.75000000  0.25000000  0.00000000  1
  O  O4  1  0.25000000  0.75000000  0.50000000  1
