# generated using pymatgen
data_LiF
_symmetry_space_group_name_H-M   'P 1'
_cell_length_a   13.66216274
_cell_length_b   7.50313463
_cell_length_c   9.29447159
_cell_angle_alpha   90.00000000
_cell_angle_beta   90.00000000
_cell_angle_gamma   90.00000000
_symmetry_Int_Tables_number   1
_chemical_formula_structural   LiF
_chemical_formula_sum   'Li24 F24'
_cell_volume   952.76742047
_cell_formula_units_Z   24
loop_
 _symmetry_equiv_pos_site_id
 _symmetry_equiv_pos_as_xyz
  1  'x, y, z'
loop_
 _atom_site_type_symbol
 _atom_site_label
 _atom_site_symmetry_multiplicity
 _atom_site_fract_x
 _atom_site_fract_y
 _atom_site_fract_z
 _atom_site_occupancy
  F  F0  1  0.94361759  0.12012554  0.75434193  1
  F  F1  1  -0.94361759  -0.12012554  0.75434193  1
  F  F2  1  -0.44361759  0.62012554  -0.75434193  1
  F  F3  1  1.44361759  0.37987446  -0.75434193  1
  F  F4  1  -0.94361759  -0.12012554  -0.75434193  1
  F  F5  1  0.94361759  0.12012554  -0.75434193  1
  F  F6  1  1.44361759  0.37987446  0.75434193  1
  F  F7  1  -0.44361759  0.62012554  0.75434193  1
  F  F8  1  0.92949288  0.24646573  0.81053564  1
  F  F9  1  0.07050712  0.75353427  0.81053564  1
  F  F10  1  0.57050712  0.74646573  0.18946436  1
  F  F11  1  0.42949288  0.25353427  0.18946436  1
  F  F12  1  0.07050712  0.75353427  0.18946436  1
  F  F13  1  0.92949288  0.24646573  0.18946436  1
  F  F14  1  0.42949288  0.25353427  0.81053564  1
  F  F15  1  0.57050712  0.74646573  0.81053564  1
  F  F16  1  0.61179310  0.72339360  0.08319364  1
  F  F17  1  0.38820690  0.27660640  0.08319364  1
  F  F18  1  0.88820690  0.22339360  0.91680636  1
  F  F19  1  0.11179310  0.77660640  0.91680636  1
  F  F20  1  0.38820690  0.27660640  0.91680636  1
  F  F21  1  0.61179310  0.72339360  0.91680636  1
  F  F22  1  0.11179310  0.77660640  0.08319364  1
  F  F23  1  0.88820690  0.22339360  0.08319364  1
  Li  Li24  1  0.00000000  0.50000000  0.74909593  1
  Li  Li25  1  0.50000000  0.00000000  0.25090407  1
  Li  Li26  1  0.00000000  0.50000000  0.25090407  1
  Li  Li27  1  0.50000000  0.00000000  0.74909593  1
  Li  Li28  1  0.87299069  0.35564377  0.11269508  1
  Li  Li29  1  0.12700931  0.64435623  0.11269508  1
  Li  Li30  1  0.62700931  0.85564377  0.88730492  1
  Li  Li31  1  0.37299069  0.14435623  0.88730492  1
  Li  Li32  1  0.12700931  0.64435623  0.88730492  1
  Li  Li33  1  0.87299069  0.35564377  0.88730492  1
  Li  Li34  1  0.37299069  0.14435623  0.11269508  1
  Li  Li35  1  0.62700931  0.85564377  0.11269508  1
  Li  Li36  1  0.24559194  0.33506102  0.34949557  1
  Li  Li37  1  0.75440806  0.66493898  0.34949557  1
  Li  Li38  1  0.25440806  0.83506102  0.65050443  1
  Li  Li39  1  0.74559194  0.16493898  0.65050443  1
  Li  Li40  1  0.75440806  0.66493898  0.65050443  1
  Li  Li41  1  0.24559194  0.33506102  0.65050443  1
  Li  Li42  1  0.74559194  0.16493898  0.34949557  1
  Li  Li43  1  0.25440806  0.83506102  0.34949557  1
  Li  Li44  1  0.15098666  0.28702230  0.50000000  1
  Li  Li45  1  0.84901334  0.71297770  0.50000000  1
  Li  Li46  1  0.34901334  0.78702230  0.50000000  1
  Li  Li47  1  0.65098666  0.21297770  0.50000000  1
