# generated using pymatgen
data_LiF
_symmetry_space_group_name_H-M   'P 1'
_cell_length_a   8.98072797
_cell_length_b   9.38184577
_cell_length_c   7.45012969
_cell_angle_alpha   90.00000000
_cell_angle_beta   90.00000000
_cell_angle_gamma   90.00000000
_symmetry_Int_Tables_number   1
_chemical_formula_structural   LiF
_chemical_formula_sum   'Li24 F24'
_cell_volume   627.71667300
_cell_formula_units_Z   24
loop_
 _symmetry_equiv_pos_site_id
 _symmetry_equiv_pos_as_xyz
  1  'x, y, z'
loop_
 _atom_site_type_symbol
 _atom_site_label
 _atom_site_symmetry_multiplicity
 _atom_site_fract_x
 _atom_site_fract_y
 _atom_site_fract_z
 _atom_site_occupancy
  F  F0  1  0.37642836  0.64461019  0.18661686  1
  F  F1  1  0.12357164  0.35538981  0.68661686  1
  F  F2  1  0.62357164  0.14461019  0.81338314  1
  F  F3  1  0.87642836  0.85538981  0.31338314  1
  F  F4  1  0.62357164  0.35538981  0.81338314  1
  F  F5  1  0.87642836  0.64461019  0.31338314  1
  F  F6  1  0.37642836  0.85538981  0.18661686  1
  F  F7  1  0.12357164  0.14461019  0.68661686  1
  F  F8  1  0.42596253  0.25000000  0.39110640  1
  F  F9  1  0.07403747  0.75000000  0.89110640  1
  F  F10  1  0.57403747  0.75000000  0.60889360  1
  F  F11  1  0.92596253  0.25000000  0.10889360  1
  F  F12  1  0.41624165  0.63136293  0.75162937  1
  F  F13  1  0.08375835  0.36863707  0.25162937  1
  F  F14  1  0.58375835  0.13136293  0.24837063  1
  F  F15  1  0.91624165  0.86863707  0.74837063  1
  F  F16  1  0.58375835  0.36863707  0.24837063  1
  F  F17  1  0.91624165  0.63136293  0.74837063  1
  F  F18  1  0.41624165  0.86863707  0.75162937  1
  F  F19  1  0.08375835  0.13136293  0.25162937  1
  F  F20  1  0.93498574  0.25000000  0.81390658  1
  F  F21  1  0.56501426  0.75000000  0.31390658  1
  F  F22  1  0.06501426  0.75000000  0.18609342  1
  F  F23  1  0.43498574  0.25000000  0.68609342  1
  Li  Li24  1  0.00000000  0.00000000  0.00000000  1
  Li  Li25  1  0.50000000  0.00000000  0.50000000  1
  Li  Li26  1  0.00000000  0.50000000  -0.00000000  1
  Li  Li27  1  0.50000000  0.50000000  0.50000000  1
  Li  Li28  1  0.10826395  0.25000000  0.11207608  1
  Li  Li29  1  0.39173605  0.75000000  0.61207608  1
  Li  Li30  1  0.89173605  0.75000000  0.88792392  1
  Li  Li31  1  0.60826395  0.25000000  0.38792392  1
  Li  Li32  1  0.57086036  0.39247967  0.06937265  1
  Li  Li33  1  -0.07086036  -0.39247967  0.56937265  1
  Li  Li34  1  -0.57086036  0.89247967  -0.06937265  1
  Li  Li35  1  1.07086036  0.10752033  0.43062735  1
  Li  Li36  1  -0.57086036  -0.39247967  -0.06937265  1
  Li  Li37  1  1.07086036  0.39247967  0.43062735  1
  Li  Li38  1  0.57086036  0.10752033  0.06937265  1
  Li  Li39  1  -0.07086036  0.89247967  0.56937265  1
  Li  Li40  1  0.51600754  0.25000000  0.84745360  1
  Li  Li41  1  0.98399246  0.75000000  0.34745360  1
  Li  Li42  1  0.48399246  0.75000000  0.15254640  1
  Li  Li43  1  0.01600754  0.25000000  0.65254640  1
  Li  Li44  1  0.74353961  0.25000000  0.88740371  1
  Li  Li45  1  0.75646039  0.75000000  0.38740371  1
  Li  Li46  1  0.25646039  0.75000000  0.11259629  1
  Li  Li47  1  0.24353961  0.25000000  0.61259629  1
