# generated using pymatgen
data_LiF
_symmetry_space_group_name_H-M   'P 1'
_cell_length_a   5.90560675
_cell_length_b   7.90832143
_cell_length_c   14.43551213
_cell_angle_alpha   90.00000000
_cell_angle_beta   90.00000000
_cell_angle_gamma   90.00000000
_symmetry_Int_Tables_number   1
_chemical_formula_structural   LiF
_chemical_formula_sum   'Li24 F24'
_cell_volume   674.18802368
_cell_formula_units_Z   24
loop_
 _symmetry_equiv_pos_site_id
 _symmetry_equiv_pos_as_xyz
  1  'x, y, z'
loop_
 _atom_site_type_symbol
 _atom_site_label
 _atom_site_symmetry_multiplicity
 _atom_site_fract_x
 _atom_site_fract_y
 _atom_site_fract_z
 _atom_site_occupancy
  F  F0  1  0.00000000  0.50000000  0.50000000  1
  F  F1  1  0.50000000  -0.00000000  0.50000000  1
  F  F2  1  0.36655002  0.08856610  0.66881118  1
  F  F3  1  -0.36655002  -0.08856610  0.66881118  1
  F  F4  1  0.13344998  0.58856610  -0.66881118  1
  F  F5  1  0.86655002  0.41143390  -0.66881118  1
  F  F6  1  -0.36655002  -0.08856610  -0.66881118  1
  F  F7  1  0.36655002  0.08856610  -0.66881118  1
  F  F8  1  0.86655002  0.41143390  0.66881118  1
  F  F9  1  0.13344998  0.58856610  0.66881118  1
  F  F10  1  0.00000000  0.00000000  0.00000000  1
  F  F11  1  0.50000000  0.50000000  0.00000000  1
  F  F12  1  0.41529914  0.63617933  0.47896132  1
  F  F13  1  0.58470086  0.36382067  0.47896132  1
  F  F14  1  0.08470086  0.13617933  0.52103868  1
  F  F15  1  0.91529914  0.86382067  0.52103868  1
  F  F16  1  0.58470086  0.36382067  0.52103868  1
  F  F17  1  0.41529914  0.63617933  0.52103868  1
  F  F18  1  0.91529914  0.86382067  0.47896132  1
  F  F19  1  0.08470086  0.13617933  0.47896132  1
  F  F20  1  0.00000000  0.50000000  0.70000377  1
  F  F21  1  0.50000000  -0.00000000  0.29999623  1
  F  F22  1  0.00000000  0.50000000  0.29999623  1
  F  F23  1  0.50000000  -0.00000000  0.70000377  1
  Li  Li24  1  0.68306604  0.40138467  0.79185958  1
  Li  Li25  1  0.31693396  0.59861533  0.79185958  1
  Li  Li26  1  0.81693396  0.90138467  0.20814042  1
  Li  Li27  1  0.18306604  0.09861533  0.20814042  1
  Li  Li28  1  0.31693396  0.59861533  0.20814042  1
  Li  Li29  1  0.68306604  0.40138467  0.20814042  1
  Li  Li30  1  0.18306604  0.09861533  0.79185958  1
  Li  Li31  1  0.81693396  0.90138467  0.79185958  1
  Li  Li32  1  0.42110644  0.20791013  0.20819059  1
  Li  Li33  1  0.57889356  0.79208987  0.20819059  1
  Li  Li34  1  0.07889356  0.70791013  0.79180941  1
  Li  Li35  1  0.92110644  0.29208987  0.79180941  1
  Li  Li36  1  0.57889356  0.79208987  0.79180941  1
  Li  Li37  1  0.42110644  0.20791013  0.79180941  1
  Li  Li38  1  0.92110644  0.29208987  0.20819059  1
  Li  Li39  1  0.07889356  0.70791013  0.20819059  1
  Li  Li40  1  0.58091535  0.13886464  -0.00000000  1
  Li  Li41  1  0.41908465  0.86113536  0.00000000  1
  Li  Li42  1  0.91908465  0.63886464  0.00000000  1
  Li  Li43  1  0.08091535  0.36113536  0.00000000  1
  Li  Li44  1  0.84430046  0.22772055  0.50000000  1
  Li  Li45  1  0.15569954  0.77227945  0.50000000  1
  Li  Li46  1  0.65569954  0.72772055  0.50000000  1
  Li  Li47  1  0.34430046  0.27227945  0.50000000  1
