# generated using pymatgen
data_LiF
_symmetry_space_group_name_H-M   'P 1'
_cell_length_a   9.00074873
_cell_length_b   19.90987002
_cell_length_c   8.29763810
_cell_angle_alpha   90.00000000
_cell_angle_beta   90.00000000
_cell_angle_gamma   90.00000000
_symmetry_Int_Tables_number   1
_chemical_formula_structural   LiF
_chemical_formula_sum   'Li48 F48'
_cell_volume   1486.96775774
_cell_formula_units_Z   48
loop_
 _symmetry_equiv_pos_site_id
 _symmetry_equiv_pos_as_xyz
  1  'x, y, z'
loop_
 _atom_site_type_symbol
 _atom_site_label
 _atom_site_symmetry_multiplicity
 _atom_site_fract_x
 _atom_site_fract_y
 _atom_site_fract_z
 _atom_site_occupancy
  F  F0  1  0.46932822  0.03417632  0.82336927  1
  F  F1  1  0.03067178  0.96582368  0.32336927  1
  F  F2  1  0.53067178  0.53417632  0.17663073  1
  F  F3  1  0.96932822  0.46582368  0.67663073  1
  F  F4  1  0.53067178  0.96582368  0.17663073  1
  F  F5  1  0.96932822  0.03417632  0.67663073  1
  F  F6  1  0.46932822  0.46582368  0.82336927  1
  F  F7  1  0.03067178  0.53417632  0.32336927  1
  F  F8  1  0.28365451  0.02717239  0.40540397  1
  F  F9  1  0.21634549  0.97282761  0.90540397  1
  F  F10  1  0.71634549  0.52717239  0.59459603  1
  F  F11  1  0.78365451  0.47282761  0.09459603  1
  F  F12  1  0.71634549  0.97282761  0.59459603  1
  F  F13  1  0.78365451  0.02717239  0.09459603  1
  F  F14  1  0.28365451  0.47282761  0.40540397  1
  F  F15  1  0.21634549  0.52717239  0.90540397  1
  F  F16  1  0.81067856  0.12015383  0.60364265  1
  F  F17  1  0.68932144  0.87984617  0.10364265  1
  F  F18  1  0.18932144  0.62015383  0.39635735  1
  F  F19  1  0.31067856  0.37984617  0.89635735  1
  F  F20  1  0.18932144  0.87984617  0.39635735  1
  F  F21  1  0.31067856  0.12015383  0.89635735  1
  F  F22  1  0.81067856  0.37984617  0.60364265  1
  F  F23  1  0.68932144  0.62015383  0.10364265  1
  F  F24  1  0.65166301  0.18515101  0.14270192  1
  F  F25  1  0.84833699  0.81484899  0.64270192  1
  F  F26  1  0.34833699  0.68515101  0.85729808  1
  F  F27  1  0.15166301  0.31484899  0.35729808  1
  F  F28  1  0.34833699  0.81484899  0.85729808  1
  F  F29  1  0.15166301  0.18515101  0.35729808  1
  F  F30  1  0.65166301  0.31484899  0.14270192  1
  F  F31  1  0.84833699  0.68515101  0.64270192  1
  F  F32  1  0.52605033  0.25000000  0.80079808  1
  F  F33  1  0.97394967  0.75000000  0.30079808  1
  F  F34  1  0.47394967  0.75000000  0.19920192  1
  F  F35  1  0.02605033  0.25000000  0.69920192  1
  F  F36  1  0.22067253  0.41390714  0.59799868  1
  F  F37  1  0.27932747  0.58609286  0.09799868  1
  F  F38  1  0.77932747  0.91390714  0.40200132  1
  F  F39  1  0.72067253  0.08609286  0.90200132  1
  F  F40  1  0.77932747  0.58609286  0.40200132  1
  F  F41  1  0.72067253  0.41390714  0.90200132  1
  F  F42  1  0.22067253  0.08609286  0.59799868  1
  F  F43  1  0.27932747  0.91390714  0.09799868  1
  F  F44  1  0.91132510  0.25000000  0.31158550  1
  F  F45  1  0.58867490  0.75000000  0.81158550  1
  F  F46  1  0.08867490  0.75000000  0.68841450  1
  F  F47  1  0.41132510  0.25000000  0.18841450  1
  Li  Li48  1  0.64849653  0.14986474  0.74178505  1
  Li  Li49  1  -0.14849653  -0.14986474  1.24178505  1
  Li  Li50  1  -0.64849653  0.64986474  -0.74178505  1
  Li  Li51  1  1.14849653  0.35013526  -0.24178505  1
  Li  Li52  1  -0.64849653  -0.14986474  -0.74178505  1
  Li  Li53  1  1.14849653  0.14986474  -0.24178505  1
  Li  Li54  1  0.64849653  0.35013526  0.74178505  1
  Li  Li55  1  -0.14849653  0.64986474  1.24178505  1
  Li  Li56  1  0.07800825  0.25000000  0.83610436  1
  Li  Li57  1  0.42199175  0.75000000  0.33610436  1
  Li  Li58  1  0.92199175  0.75000000  0.16389564  1
  Li  Li59  1  0.57800825  0.25000000  0.66389564  1
  Li  Li60  1  0.99547561  0.33539669  0.44230886  1
  Li  Li61  1  0.50452439  0.66460331  0.94230886  1
  Li  Li62  1  0.00452439  0.83539669  0.55769114  1
  Li  Li63  1  0.49547561  0.16460331  0.05769114  1
  Li  Li64  1  0.00452439  0.66460331  0.55769114  1
  Li  Li65  1  0.49547561  0.33539669  0.05769114  1
  Li  Li66  1  0.99547561  0.16460331  0.44230886  1
  Li  Li67  1  0.50452439  0.83539669  0.94230886  1
  Li  Li68  1  0.17774110  0.46227317  0.06882432  1
  Li  Li69  1  0.32225890  0.53772683  0.56882432  1
  Li  Li70  1  0.82225890  0.96227317  0.93117568  1
  Li  Li71  1  0.67774110  0.03772683  0.43117568  1
  Li  Li72  1  0.82225890  0.53772683  0.93117568  1
  Li  Li73  1  0.67774110  0.46227317  0.43117568  1
  Li  Li74  1  0.17774110  0.03772683  0.06882432  1
  Li  Li75  1  0.32225890  0.96227317  0.56882432  1
  Li  Li76  1  0.00000000  0.00000000  0.00000000  1
  Li  Li77  1  0.50000000  0.00000000  0.50000000  1
  Li  Li78  1  0.00000000  0.50000000  0.00000000  1
  Li  Li79  1  0.50000000  0.50000000  0.50000000  1
  Li  Li80  1  0.62042747  0.50011612  0.22927091  1
  Li  Li81  1  0.87957253  0.49988388  0.72927091  1
  Li  Li82  1  0.37957253  0.00011612  0.77072909  1
  Li  Li83  1  0.12042747  0.99988388  0.27072909  1
  Li  Li84  1  0.37957253  0.49988388  0.77072909  1
  Li  Li85  1  0.12042747  0.50011612  0.27072909  1
  Li  Li86  1  0.62042747  0.99988388  0.22927091  1
  Li  Li87  1  0.87957253  0.00011612  0.72927091  1
  Li  Li88  1  0.90061504  0.67196834  0.98588533  1
  Li  Li89  1  0.59938496  0.32803166  0.48588533  1
  Li  Li90  1  0.09938496  0.17196834  0.01411467  1
  Li  Li91  1  0.40061504  0.82803166  0.51411467  1
  Li  Li92  1  0.09938496  0.32803166  0.01411467  1
  Li  Li93  1  0.40061504  0.67196834  0.51411467  1
  Li  Li94  1  0.90061504  0.82803166  0.98588533  1
  Li  Li95  1  0.59938496  0.17196834  0.48588533  1
