# generated using pymatgen
data_LiCaF3
_symmetry_space_group_name_H-M   'P 1'
_cell_length_a   10.88988241
_cell_length_b   10.88988241
_cell_length_c   17.85321015
_cell_angle_alpha   90.00000000
_cell_angle_beta   90.00000000
_cell_angle_gamma   120.00000000
_symmetry_Int_Tables_number   1
_chemical_formula_structural   LiCaF3
_chemical_formula_sum   'Li18 Ca18 F54'
_cell_volume   1833.55241428
_cell_formula_units_Z   18
loop_
 _symmetry_equiv_pos_site_id
 _symmetry_equiv_pos_as_xyz
  1  'x, y, z'
loop_
 _atom_site_type_symbol
 _atom_site_label
 _atom_site_symmetry_multiplicity
 _atom_site_fract_x
 _atom_site_fract_y
 _atom_site_fract_z
 _atom_site_occupancy
  Ca  Ca0  1  0.50000000  0.00000000  0.00000000  1
  Ca  Ca1  1  0.00000000  0.50000000  0.00000000  1
  Ca  Ca2  1  0.50000000  0.50000000  0.00000000  1
  Ca  Ca3  1  0.00000000  0.50000000  0.50000000  1
  Ca  Ca4  1  0.50000000  0.00000000  0.50000000  1
  Ca  Ca5  1  0.50000000  0.50000000  0.50000000  1
  Ca  Ca6  1  0.16666667  0.33333333  0.33333333  1
  Ca  Ca7  1  0.66666667  0.83333333  0.33333333  1
  Ca  Ca8  1  0.16666667  0.83333333  0.33333333  1
  Ca  Ca9  1  0.66666667  0.83333333  0.83333333  1
  Ca  Ca10  1  0.16666667  0.33333333  0.83333333  1
  Ca  Ca11  1  0.16666667  0.83333333  0.83333333  1
  Ca  Ca12  1  0.83333333  0.66666667  0.66666667  1
  Ca  Ca13  1  0.33333333  0.16666667  0.66666667  1
  Ca  Ca14  1  0.83333333  0.16666667  0.66666667  1
  Ca  Ca15  1  0.33333333  0.16666667  0.16666667  1
  Ca  Ca16  1  0.83333333  0.66666667  0.16666667  1
  Ca  Ca17  1  0.83333333  0.16666667  0.16666667  1
  F  F18  1  0.13382199  0.42198160  0.41600011  1
  F  F19  1  -0.42198160  -0.28815961  0.41600011  1
  F  F20  1  0.28815961  -0.13382199  0.41600011  1
  F  F21  1  0.42198160  0.13382199  0.08399989  1
  F  F22  1  -0.28815961  -0.42198160  0.08399989  1
  F  F23  1  -0.13382199  0.28815961  0.08399989  1
  F  F24  1  -0.13382199  -0.42198160  -0.41600011  1
  F  F25  1  0.42198160  0.28815961  -0.41600011  1
  F  F26  1  -0.28815961  0.13382199  -0.41600011  1
  F  F27  1  -0.42198160  -0.13382199  0.91600011  1
  F  F28  1  0.28815961  0.42198160  0.91600011  1
  F  F29  1  0.13382199  -0.28815961  0.91600011  1
  F  F30  1  0.80048865  0.75531493  0.74933344  1
  F  F31  1  0.24468507  0.04517372  0.74933344  1
  F  F32  1  0.95482628  0.19951135  0.74933344  1
  F  F33  1  1.08864827  0.46715532  0.41733322  1
  F  F34  1  0.37850705  -0.08864827  0.41733322  1
  F  F35  1  0.53284468  0.62149295  0.41733322  1
  F  F36  1  0.53284468  -0.08864827  -0.08266678  1
  F  F37  1  1.08864827  0.62149295  -0.08266678  1
  F  F38  1  0.37850705  0.46715532  -0.08266678  1
  F  F39  1  0.24468507  0.19951135  1.24933344  1
  F  F40  1  0.95482628  0.75531493  1.24933344  1
  F  F41  1  0.80048865  0.04517372  1.24933344  1
  F  F42  1  0.46715532  1.08864827  1.08266678  1
  F  F43  1  -0.08864827  0.37850705  1.08266678  1
  F  F44  1  0.62149295  0.53284468  1.08266678  1
  F  F45  1  0.75531493  0.80048865  0.75066656  1
  F  F46  1  0.04517372  0.24468507  0.75066656  1
  F  F47  1  0.19951135  0.95482628  0.75066656  1
  F  F48  1  0.19951135  0.24468507  0.25066656  1
  F  F49  1  0.75531493  0.95482628  0.25066656  1
  F  F50  1  0.04517372  0.80048865  0.25066656  1
  F  F51  1  -0.08864827  0.53284468  1.58266678  1
  F  F52  1  0.62149295  1.08864827  1.58266678  1
  F  F53  1  0.46715532  0.37850705  1.58266678  1
  F  F54  1  0.00000000  0.00000000  0.25000000  1
  F  F55  1  0.00000000  0.00000000  0.75000000  1
  F  F56  1  0.66666667  0.33333333  0.58333333  1
  F  F57  1  0.66666667  0.33333333  0.08333333  1
  F  F58  1  0.33333333  0.66666667  0.91666667  1
  F  F59  1  0.33333333  0.66666667  0.41666667  1
  F  F60  1  0.00000000  0.00000000  0.95119047  1
  F  F61  1  0.00000000  0.00000000  0.54880953  1
  F  F62  1  0.00000000  0.00000000  0.04880953  1
  F  F63  1  0.00000000  0.00000000  0.45119047  1
  F  F64  1  0.66666667  0.33333333  0.28452380  1
  F  F65  1  0.66666667  0.33333333  0.88214287  1
  F  F66  1  0.66666667  0.33333333  0.38214287  1
  F  F67  1  0.66666667  0.33333333  0.78452380  1
  F  F68  1  0.33333333  0.66666667  0.61785713  1
  F  F69  1  0.33333333  0.66666667  0.21547620  1
  F  F70  1  0.33333333  0.66666667  0.71547620  1
  F  F71  1  0.33333333  0.66666667  0.11785713  1
  Li  Li72  1  0.54220670  0.00000000  0.25000000  1
  Li  Li73  1  0.00000000  0.54220670  0.25000000  1
  Li  Li74  1  0.45779330  0.45779330  0.25000000  1
  Li  Li75  1  0.45779330  0.00000000  0.75000000  1
  Li  Li76  1  0.00000000  0.45779330  0.75000000  1
  Li  Li77  1  0.54220670  0.54220670  0.75000000  1
  Li  Li78  1  0.20887336  0.33333333  0.58333333  1
  Li  Li79  1  0.66666667  0.87554003  0.58333333  1
  Li  Li80  1  0.12445997  0.79112664  0.58333333  1
  Li  Li81  1  0.12445997  0.33333333  0.08333333  1
  Li  Li82  1  0.66666667  0.79112664  0.08333333  1
  Li  Li83  1  0.20887336  0.87554003  0.08333333  1
  Li  Li84  1  0.87554003  0.66666667  0.91666667  1
  Li  Li85  1  0.33333333  0.20887336  0.91666667  1
  Li  Li86  1  0.79112664  0.12445997  0.91666667  1
  Li  Li87  1  0.79112664  0.66666667  0.41666667  1
  Li  Li88  1  0.33333333  0.12445997  0.41666667  1
  Li  Li89  1  0.87554003  0.20887336  0.41666667  1
