# generated using pymatgen
data_Li2Y2MoP3Se2
_symmetry_space_group_name_H-M   'P 1'
_cell_length_a   5.46577902
_cell_length_b   5.62798791
_cell_length_c   7.16399572
_cell_angle_alpha   93.93385361
_cell_angle_beta   98.56711534
_cell_angle_gamma   105.80072648
_symmetry_Int_Tables_number   1
_chemical_formula_structural   Li2Y2MoP3Se2
_chemical_formula_sum   'Li2 Y2 Mo1 P3 Se2'
_cell_volume   208.29644668
_cell_formula_units_Z   1
loop_
 _symmetry_equiv_pos_site_id
 _symmetry_equiv_pos_as_xyz
  1  'x, y, z'
loop_
 _atom_site_type_symbol
 _atom_site_label
 _atom_site_symmetry_multiplicity
 _atom_site_fract_x
 _atom_site_fract_y
 _atom_site_fract_z
 _atom_site_occupancy
  Se  Se0  1  0.12500000  0.00000000  0.25000000  1
  Se  Se1  1  0.00000000  0.00000000  0.00000000  1
  Y  Y2  1  0.37500000  0.00000000  0.25000000  1
  Y  Y3  1  0.25000000  0.25000000  0.25000000  1
  P  P4  1  0.00000000  0.25000000  0.12500000  1
  P  P5  1  0.02700823  0.83871940  0.79237432  1
  P  P6  1  0.03077236  0.89364381  0.43523390  1
  Mo  Mo7  1  0.55837031  0.34580450  0.18670141  1
  Li  Li8  1  0.56464395  0.18932245  0.14935808  1
  Li  Li9  1  0.02406998  0.15095938  0.11155545  1
