# generated using pymatgen
data_LiF
_symmetry_space_group_name_H-M   'P 1'
_cell_length_a   12.99550989
_cell_length_b   12.99550989
_cell_length_c   12.51084423
_cell_angle_alpha   90.00000000
_cell_angle_beta   90.00000000
_cell_angle_gamma   120.00000000
_symmetry_Int_Tables_number   1
_chemical_formula_structural   LiF
_chemical_formula_sum   'Li46 F46'
_cell_volume   1829.80115275
_cell_formula_units_Z   46
loop_
 _symmetry_equiv_pos_site_id
 _symmetry_equiv_pos_as_xyz
  1  'x, y, z'
loop_
 _atom_site_type_symbol
 _atom_site_label
 _atom_site_symmetry_multiplicity
 _atom_site_fract_x
 _atom_site_fract_y
 _atom_site_fract_z
 _atom_site_occupancy
  F  F0  1  0.75890941  0.93938876  0.93483688  1
  F  F1  1  0.06061124  0.81952065  0.93483688  1
  F  F2  1  0.18047935  0.24109059  0.93483688  1
  F  F3  1  0.06061124  0.24109059  0.06516312  1
  F  F4  1  0.18047935  0.93938876  0.06516312  1
  F  F5  1  0.75890941  0.81952065  0.06516312  1
  F  F6  1  0.88208468  0.11791532  0.00000000  1
  F  F7  1  0.88208468  0.76416935  0.00000000  1
  F  F8  1  0.23583065  0.11791532  0.00000000  1
  F  F9  1  0.26912849  0.51656066  0.94968063  1
  F  F10  1  0.48343934  0.75256782  0.94968063  1
  F  F11  1  0.24743218  0.73087151  0.94968063  1
  F  F12  1  0.48343934  0.73087151  0.05031937  1
  F  F13  1  0.24743218  0.51656066  0.05031937  1
  F  F14  1  0.26912849  0.75256782  0.05031937  1
  F  F15  1  0.17467683  0.83013768  0.87898535  1
  F  F16  1  0.16986232  0.34453915  0.87898535  1
  F  F17  1  0.65546085  0.82532317  0.87898535  1
  F  F18  1  0.16986232  0.82532317  0.12101465  1
  F  F19  1  0.65546085  0.83013768  0.12101465  1
  F  F20  1  0.17467683  0.34453915  0.12101465  1
  F  F21  1  0.27717961  0.72014905  0.85724428  1
  F  F22  1  0.27985095  0.55703056  0.85724428  1
  F  F23  1  0.44296944  0.72282039  0.85724428  1
  F  F24  1  0.27985095  0.72282039  0.14275572  1
  F  F25  1  0.44296944  0.72014905  0.14275572  1
  F  F26  1  0.27717961  0.55703056  0.14275572  1
  F  F27  1  0.40016951  0.39661755  0.62886786  1
  F  F28  1  0.60338245  0.00355196  0.62886786  1
  F  F29  1  0.99644804  0.59983049  0.62886786  1
  F  F30  1  0.60338245  0.59983049  0.37113214  1
  F  F31  1  0.99644804  0.39661755  0.37113214  1
  F  F32  1  0.40016951  0.00355196  0.37113214  1
  F  F33  1  0.72470631  0.95966520  0.68298277  1
  F  F34  1  0.04033480  0.76504111  0.68298277  1
  F  F35  1  0.23495889  0.27529369  0.68298277  1
  F  F36  1  0.04033480  0.27529369  0.31701723  1
  F  F37  1  0.23495889  0.95966520  0.31701723  1
  F  F38  1  0.72470631  0.76504111  0.31701723  1
  F  F39  1  0.62869218  0.57180982  0.99968276  1
  F  F40  1  0.42819018  0.05688236  0.99968276  1
  F  F41  1  0.94311764  0.37130782  0.99968276  1
  F  F42  1  0.42819018  0.37130782  0.00031724  1
  F  F43  1  0.94311764  0.57180982  0.00031724  1
  F  F44  1  0.62869218  0.05688236  0.00031724  1
  F  F45  1  0.66666667  0.33333333  -0.00000000  1
  Li  Li46  1  0.00000000  0.00000000  0.00000000  1
  Li  Li47  1  0.33333333  0.66666667  0.50000000  1
  Li  Li48  1  0.86197027  0.01572367  0.30129794  1
  Li  Li49  1  -0.01572367  0.84624660  0.30129794  1
  Li  Li50  1  -0.84624660  -0.86197027  0.30129794  1
  Li  Li51  1  -0.01572367  -0.86197027  -0.30129794  1
  Li  Li52  1  -0.84624660  0.01572367  -0.30129794  1
  Li  Li53  1  0.86197027  0.84624660  -0.30129794  1
  Li  Li54  1  0.54156759  0.29817273  0.86749539  1
  Li  Li55  1  0.70182727  0.24339486  0.86749539  1
  Li  Li56  1  0.75660514  0.45843241  0.86749539  1
  Li  Li57  1  0.70182727  0.45843241  0.13250461  1
  Li  Li58  1  0.75660514  0.29817273  0.13250461  1
  Li  Li59  1  0.54156759  0.24339486  0.13250461  1
  Li  Li60  1  0.66666667  0.33333333  0.50000000  1
  Li  Li61  1  0.33333333  0.66666667  0.93153059  1
  Li  Li62  1  0.33333333  0.66666667  0.06846941  1
  Li  Li63  1  0.18872340  0.69095461  0.20459321  1
  Li  Li64  1  0.30904539  0.49776878  0.20459321  1
  Li  Li65  1  0.50223122  0.81127660  0.20459321  1
  Li  Li66  1  0.30904539  0.81127660  0.79540679  1
  Li  Li67  1  0.50223122  0.69095461  0.79540679  1
  Li  Li68  1  0.18872340  0.49776878  0.79540679  1
  Li  Li69  1  0.86814408  0.45203078  0.90189466  1
  Li  Li70  1  0.54796922  0.41611330  0.90189466  1
  Li  Li71  1  0.58388670  0.13185592  0.90189466  1
  Li  Li72  1  0.54796922  0.13185592  0.09810534  1
  Li  Li73  1  0.58388670  0.45203078  0.09810534  1
  Li  Li74  1  0.86814408  0.41611330  0.09810534  1
  Li  Li75  1  0.88288582  0.96367031  0.77424184  1
  Li  Li76  1  0.03632969  0.91921551  0.77424184  1
  Li  Li77  1  0.08078449  0.11711418  0.77424184  1
  Li  Li78  1  0.03632969  0.11711418  0.22575816  1
  Li  Li79  1  0.08078449  0.96367031  0.22575816  1
  Li  Li80  1  0.88288582  0.91921551  0.22575816  1
  Li  Li81  1  0.40024808  0.79579781  0.28995645  1
  Li  Li82  1  0.20420219  0.60445027  0.28995645  1
  Li  Li83  1  0.39554973  0.59975192  0.28995645  1
  Li  Li84  1  0.20420219  0.59975192  0.71004355  1
  Li  Li85  1  0.39554973  0.79579781  0.71004355  1
  Li  Li86  1  0.40024808  0.60445027  0.71004355  1
  Li  Li87  1  0.80862574  0.19137426  0.50000000  1
  Li  Li88  1  0.80862574  0.61725148  0.50000000  1
  Li  Li89  1  0.38274852  0.19137426  0.50000000  1
  Li  Li90  1  0.33333333  0.66666667  0.35190202  1
  Li  Li91  1  0.33333333  0.66666667  0.64809798  1
