# generated using pymatgen
data_LiF
_symmetry_space_group_name_H-M   'P 1'
_cell_length_a   8.08863060
_cell_length_b   7.75922741
_cell_length_c   13.04089695
_cell_angle_alpha   90.00000000
_cell_angle_beta   90.00000000
_cell_angle_gamma   90.00000000
_symmetry_Int_Tables_number   1
_chemical_formula_structural   LiF
_chemical_formula_sum   'Li24 F24'
_cell_volume   818.46657115
_cell_formula_units_Z   24
loop_
 _symmetry_equiv_pos_site_id
 _symmetry_equiv_pos_as_xyz
  1  'x, y, z'
loop_
 _atom_site_type_symbol
 _atom_site_label
 _atom_site_symmetry_multiplicity
 _atom_site_fract_x
 _atom_site_fract_y
 _atom_site_fract_z
 _atom_site_occupancy
  F  F0  1  0.98413365  0.25000000  0.88292178  1
  F  F1  1  0.51586635  0.75000000  0.38292178  1
  F  F2  1  0.01586635  0.75000000  0.11707822  1
  F  F3  1  0.48413365  0.25000000  0.61707822  1
  F  F4  1  0.54863204  0.25000000  0.82904477  1
  F  F5  1  0.95136796  0.75000000  0.32904477  1
  F  F6  1  0.45136796  0.75000000  0.17095523  1
  F  F7  1  0.04863204  0.25000000  0.67095523  1
  F  F8  1  0.92837428  0.88778663  0.23576493  1
  F  F9  1  0.57162572  0.11221337  0.73576493  1
  F  F10  1  0.07162572  0.38778663  0.76423507  1
  F  F11  1  0.42837428  0.61221337  0.26423507  1
  F  F12  1  0.07162572  0.11221337  0.76423507  1
  F  F13  1  0.42837428  0.88778663  0.26423507  1
  F  F14  1  0.92837428  0.61221337  0.23576493  1
  F  F15  1  0.57162572  0.38778663  0.73576493  1
  F  F16  1  0.15496622  0.03819271  0.30663450  1
  F  F17  1  0.34503378  0.96180729  0.80663450  1
  F  F18  1  0.84503378  0.53819271  0.69336550  1
  F  F19  1  0.65496622  0.46180729  0.19336550  1
  F  F20  1  0.84503378  0.96180729  0.69336550  1
  F  F21  1  0.65496622  0.03819271  0.19336550  1
  F  F22  1  0.15496622  0.46180729  0.30663450  1
  F  F23  1  0.34503378  0.53819271  0.80663450  1
  Li  Li24  1  0.98606558  0.48149020  0.56983006  1
  Li  Li25  1  -0.48606558  -0.48149020  1.06983006  1
  Li  Li26  1  -0.98606558  0.98149020  -0.56983006  1
  Li  Li27  1  1.48606558  0.01850980  -0.06983006  1
  Li  Li28  1  -0.98606558  -0.48149020  -0.56983006  1
  Li  Li29  1  1.48606558  0.48149020  -0.06983006  1
  Li  Li30  1  0.98606558  0.01850980  0.56983006  1
  Li  Li31  1  -0.48606558  0.98149020  1.06983006  1
  Li  Li32  1  0.65491389  0.25000000  0.94758774  1
  Li  Li33  1  0.84508611  0.75000000  0.44758774  1
  Li  Li34  1  0.34508611  0.75000000  0.05241226  1
  Li  Li35  1  0.15491389  0.25000000  0.55241226  1
  Li  Li36  1  0.00000000  0.00000000  0.00000000  1
  Li  Li37  1  0.50000000  0.00000000  0.50000000  1
  Li  Li38  1  0.00000000  0.50000000  -0.00000000  1
  Li  Li39  1  0.50000000  0.50000000  0.50000000  1
  Li  Li40  1  0.42724567  0.25000000  0.71155212  1
  Li  Li41  1  0.07275433  0.75000000  0.21155212  1
  Li  Li42  1  0.57275433  0.75000000  0.28844788  1
  Li  Li43  1  0.92724567  0.25000000  0.78844788  1
  Li  Li44  1  0.78737415  0.25000000  0.52328299  1
  Li  Li45  1  0.71262585  0.75000000  0.02328299  1
  Li  Li46  1  0.21262585  0.75000000  0.47671701  1
  Li  Li47  1  0.28737415  0.25000000  0.97671701  1
