# generated using pymatgen
data_LiF
_symmetry_space_group_name_H-M   'P 1'
_cell_length_a   11.98976665
_cell_length_b   11.98976665
_cell_length_c   5.80939837
_cell_angle_alpha   90.00000000
_cell_angle_beta   90.00000000
_cell_angle_gamma   120.00000000
_symmetry_Int_Tables_number   1
_chemical_formula_structural   LiF
_chemical_formula_sum   'Li30 F30'
_cell_volume   723.24135515
_cell_formula_units_Z   30
loop_
 _symmetry_equiv_pos_site_id
 _symmetry_equiv_pos_as_xyz
  1  'x, y, z'
loop_
 _atom_site_type_symbol
 _atom_site_label
 _atom_site_symmetry_multiplicity
 _atom_site_fract_x
 _atom_site_fract_y
 _atom_site_fract_z
 _atom_site_occupancy
  F  F0  1  0.58433012  0.58508479  0.52953872  1
  F  F1  1  -0.58508479  -0.00075466  0.52953872  1
  F  F2  1  0.00075466  -0.58433012  0.52953872  1
  F  F3  1  -0.58433012  -0.58508479  1.02953872  1
  F  F4  1  0.58508479  0.00075466  1.02953872  1
  F  F5  1  -0.00075466  0.58433012  1.02953872  1
  F  F6  1  -0.58433012  -0.58508479  -0.52953872  1
  F  F7  1  0.58508479  0.00075466  -0.52953872  1
  F  F8  1  -0.00075466  0.58433012  -0.52953872  1
  F  F9  1  0.58433012  0.58508479  -0.02953872  1
  F  F10  1  -0.58508479  -0.00075466  -0.02953872  1
  F  F11  1  0.00075466  -0.58433012  -0.02953872  1
  F  F12  1  0.87973763  0.13065059  0.40948376  1
  F  F13  1  0.86934941  0.74908704  0.40948376  1
  F  F14  1  0.25091296  0.12026237  0.40948376  1
  F  F15  1  0.12026237  0.86934941  0.90948376  1
  F  F16  1  0.13065059  0.25091296  0.90948376  1
  F  F17  1  0.74908704  0.87973763  0.90948376  1
  F  F18  1  0.12026237  0.86934941  0.59051624  1
  F  F19  1  0.13065059  0.25091296  0.59051624  1
  F  F20  1  0.74908704  0.87973763  0.59051624  1
  F  F21  1  0.87973763  0.13065059  0.09051624  1
  F  F22  1  0.86934941  0.74908704  0.09051624  1
  F  F23  1  0.25091296  0.12026237  0.09051624  1
  F  F24  1  0.00000000  0.00000000  0.25000000  1
  F  F25  1  0.00000000  0.00000000  0.75000000  1
  F  F26  1  0.33333333  0.66666667  0.61996622  1
  F  F27  1  0.66666667  0.33333333  0.11996622  1
  F  F28  1  0.66666667  0.33333333  0.38003378  1
  F  F29  1  0.33333333  0.66666667  0.88003378  1
  Li  Li30  1  0.50000000  0.00000000  0.00000000  1
  Li  Li31  1  0.00000000  0.50000000  -0.00000000  1
  Li  Li32  1  0.50000000  0.50000000  0.00000000  1
  Li  Li33  1  0.50000000  0.00000000  0.50000000  1
  Li  Li34  1  0.00000000  0.50000000  0.50000000  1
  Li  Li35  1  0.50000000  0.50000000  0.50000000  1
  Li  Li36  1  0.19775374  0.23226874  0.25000000  1
  Li  Li37  1  0.76773126  0.96548501  0.25000000  1
  Li  Li38  1  0.03451499  0.80224626  0.25000000  1
  Li  Li39  1  0.80224626  0.76773126  0.75000000  1
  Li  Li40  1  0.23226874  0.03451499  0.75000000  1
  Li  Li41  1  0.96548501  0.19775374  0.75000000  1
  Li  Li42  1  0.49501953  0.70225339  0.97209189  1
  Li  Li43  1  0.29774661  0.79276615  0.97209189  1
  Li  Li44  1  0.20723385  0.50498047  0.97209189  1
  Li  Li45  1  0.50498047  0.29774661  0.47209189  1
  Li  Li46  1  0.70225339  0.20723385  0.47209189  1
  Li  Li47  1  0.79276615  0.49501953  0.47209189  1
  Li  Li48  1  0.50498047  0.29774661  0.02790811  1
  Li  Li49  1  0.70225339  0.20723385  0.02790811  1
  Li  Li50  1  0.79276615  0.49501953  0.02790811  1
  Li  Li51  1  0.49501953  0.70225339  0.52790811  1
  Li  Li52  1  0.29774661  0.79276615  0.52790811  1
  Li  Li53  1  0.20723385  0.50498047  0.52790811  1
  Li  Li54  1  0.67597445  0.63962179  0.25000000  1
  Li  Li55  1  0.36037821  0.03635266  0.25000000  1
  Li  Li56  1  0.96364734  0.32402555  0.25000000  1
  Li  Li57  1  0.32402555  0.36037821  0.75000000  1
  Li  Li58  1  0.63962179  0.96364734  0.75000000  1
  Li  Li59  1  0.03635266  0.67597445  0.75000000  1
