# generated using pymatgen
data_LiF
_symmetry_space_group_name_H-M   'P 1'
_cell_length_a   11.48724166
_cell_length_b   6.50502745
_cell_length_c   6.77277098
_cell_angle_alpha   90.00000000
_cell_angle_beta   90.00000000
_cell_angle_gamma   90.00000000
_symmetry_Int_Tables_number   1
_chemical_formula_structural   LiF
_chemical_formula_sum   'Li18 F18'
_cell_volume   506.09410863
_cell_formula_units_Z   18
loop_
 _symmetry_equiv_pos_site_id
 _symmetry_equiv_pos_as_xyz
  1  'x, y, z'
loop_
 _atom_site_type_symbol
 _atom_site_label
 _atom_site_symmetry_multiplicity
 _atom_site_fract_x
 _atom_site_fract_y
 _atom_site_fract_z
 _atom_site_occupancy
  F  F0  1  0.61557408  0.02543185  0.82316551  1
  F  F1  1  -0.61557408  -0.02543185  0.82316551  1
  F  F2  1  -0.11557408  0.52543185  -0.82316551  1
  F  F3  1  1.11557408  0.47456815  -0.82316551  1
  F  F4  1  -0.61557408  -0.02543185  -0.82316551  1
  F  F5  1  0.61557408  0.02543185  -0.82316551  1
  F  F6  1  1.11557408  0.47456815  0.82316551  1
  F  F7  1  -0.11557408  0.52543185  0.82316551  1
  F  F8  1  0.00000000  0.00000000  0.00000000  1
  F  F9  1  0.50000000  0.50000000  0.00000000  1
  F  F10  1  0.72638961  0.88801014  0.50000000  1
  F  F11  1  0.27361039  0.11198986  0.50000000  1
  F  F12  1  0.77361039  0.38801014  0.50000000  1
  F  F13  1  0.22638961  0.61198986  0.50000000  1
  F  F14  1  0.59401208  0.77053999  0.50000000  1
  F  F15  1  0.40598792  0.22946001  0.50000000  1
  F  F16  1  0.90598792  0.27053999  0.50000000  1
  F  F17  1  0.09401208  0.72946001  0.50000000  1
  Li  Li18  1  0.82324422  0.09355884  0.37414684  1
  Li  Li19  1  0.17675578  0.90644116  0.37414684  1
  Li  Li20  1  0.67675578  0.59355884  0.62585316  1
  Li  Li21  1  0.32324422  0.40644116  0.62585316  1
  Li  Li22  1  0.17675578  0.90644116  0.62585316  1
  Li  Li23  1  0.82324422  0.09355884  0.62585316  1
  Li  Li24  1  0.32324422  0.40644116  0.37414684  1
  Li  Li25  1  0.67675578  0.59355884  0.37414684  1
  Li  Li26  1  0.00000000  0.00000000  0.64141830  1
  Li  Li27  1  0.50000000  0.50000000  0.35858170  1
  Li  Li28  1  0.00000000  0.00000000  0.35858170  1
  Li  Li29  1  0.50000000  0.50000000  0.64141830  1
  Li  Li30  1  0.00000000  0.50000000  0.00000000  1
  Li  Li31  1  0.50000000  0.00000000  0.00000000  1
  Li  Li32  1  0.15669860  0.76764276  0.00000000  1
  Li  Li33  1  0.84330140  0.23235724  0.00000000  1
  Li  Li34  1  0.34330140  0.26764276  0.00000000  1
  Li  Li35  1  0.65669860  0.73235724  0.00000000  1
