# generated using pymatgen
data_LiF
_symmetry_space_group_name_H-M   'P 1'
_cell_length_a   6.04532468
_cell_length_b   6.04532468
_cell_length_c   15.58708048
_cell_angle_alpha   90.00000000
_cell_angle_beta   90.00000000
_cell_angle_gamma   120.00000000
_symmetry_Int_Tables_number   1
_chemical_formula_structural   LiF
_chemical_formula_sum   'Li19 F19'
_cell_volume   493.32675643
_cell_formula_units_Z   19
loop_
 _symmetry_equiv_pos_site_id
 _symmetry_equiv_pos_as_xyz
  1  'x, y, z'
loop_
 _atom_site_type_symbol
 _atom_site_label
 _atom_site_symmetry_multiplicity
 _atom_site_fract_x
 _atom_site_fract_y
 _atom_site_fract_z
 _atom_site_occupancy
  F  F0  1  0.66666667  0.33333333  0.00000000  1
  F  F1  1  0.17896094  0.91453344  0.34747671  1
  F  F2  1  0.08546656  0.26442751  0.34747671  1
  F  F3  1  0.73557249  0.82103906  0.34747671  1
  F  F4  1  0.08546656  0.82103906  0.65252329  1
  F  F5  1  0.73557249  0.91453344  0.65252329  1
  F  F6  1  0.17896094  0.26442751  0.65252329  1
  F  F7  1  0.83100463  0.32820073  0.65285576  1
  F  F8  1  0.67179927  0.50280390  0.65285576  1
  F  F9  1  0.49719610  0.16899537  0.65285576  1
  F  F10  1  0.67179927  0.16899537  0.34714424  1
  F  F11  1  0.49719610  0.32820073  0.34714424  1
  F  F12  1  0.83100463  0.50280390  0.34714424  1
  F  F13  1  0.42055338  0.78968647  0.98414322  1
  F  F14  1  0.21031353  0.63086691  0.98414322  1
  F  F15  1  0.36913309  0.57944662  0.98414322  1
  F  F16  1  0.21031353  0.57944662  0.01585678  1
  F  F17  1  0.36913309  0.78968647  0.01585678  1
  F  F18  1  0.42055338  0.63086691  0.01585678  1
  Li  Li19  1  0.33333333  0.66666667  0.70744787  1
  Li  Li20  1  0.33333333  0.66666667  0.29255213  1
  Li  Li21  1  0.29307004  0.79306494  0.91208376  1
  Li  Li22  1  -0.79306494  -0.49999490  0.91208376  1
  Li  Li23  1  0.49999490  -0.29307004  0.91208376  1
  Li  Li24  1  -0.79306494  -0.29307004  -0.91208376  1
  Li  Li25  1  0.49999490  0.79306494  -0.91208376  1
  Li  Li26  1  0.29307004  -0.49999490  -0.91208376  1
  Li  Li27  1  0.00000000  0.00000000  0.00000000  1
  Li  Li28  1  0.80432149  0.19453563  0.14910485  1
  Li  Li29  1  0.80546437  0.60978586  0.14910485  1
  Li  Li30  1  0.39021414  0.19567851  0.14910485  1
  Li  Li31  1  0.80546437  0.19567851  0.85089515  1
  Li  Li32  1  0.39021414  0.19453563  0.85089515  1
  Li  Li33  1  0.80432149  0.60978586  0.85089515  1
  Li  Li34  1  0.58019353  0.41980647  0.50000000  1
  Li  Li35  1  0.58019353  0.16038706  0.50000000  1
  Li  Li36  1  0.83961294  0.41980647  0.50000000  1
  Li  Li37  1  0.00000000  0.00000000  0.50000000  1
