# generated using pymatgen
data_LiYAlOF
_symmetry_space_group_name_H-M   'P 1'
_cell_length_a   3.11916338
_cell_length_b   3.06884364
_cell_length_c   5.27927161
_cell_angle_alpha   99.88654651
_cell_angle_beta   107.62432358
_cell_angle_gamma   111.01145681
_symmetry_Int_Tables_number   1
_chemical_formula_structural   LiYAlOF
_chemical_formula_sum   'Li1 Y1 Al1 O1 F1'
_cell_volume   42.67108335
_cell_formula_units_Z   1
loop_
 _symmetry_equiv_pos_site_id
 _symmetry_equiv_pos_as_xyz
  1  'x, y, z'
loop_
 _atom_site_type_symbol
 _atom_site_label
 _atom_site_symmetry_multiplicity
 _atom_site_fract_x
 _atom_site_fract_y
 _atom_site_fract_z
 _atom_site_occupancy
  F  F0  1  0.00000000  0.00000000  0.00000000  1
  Al  Al1  1  0.50000000  0.50000000  0.50000000  1
  Li  Li2  1  0.25000000  0.25000000  0.25000000  1
  O  O3  1  0.75000000  0.25000000  0.00000000  1
  Y  Y4  1  0.25000000  0.75000000  0.50000000  1
