# generated using pymatgen
data_Li4ScF
_symmetry_space_group_name_H-M   'P 1'
_cell_length_a   3.28950165
_cell_length_b   3.14086540
_cell_length_c   5.67124023
_cell_angle_alpha   110.96374296
_cell_angle_beta   102.77094279
_cell_angle_gamma   107.62147315
_symmetry_Int_Tables_number   1
_chemical_formula_structural   Li4ScF
_chemical_formula_sum   'Li4 Sc1 F1'
_cell_volume   48.44616482
_cell_formula_units_Z   1
loop_
 _symmetry_equiv_pos_site_id
 _symmetry_equiv_pos_as_xyz
  1  'x, y, z'
loop_
 _atom_site_type_symbol
 _atom_site_label
 _atom_site_symmetry_multiplicity
 _atom_site_fract_x
 _atom_site_fract_y
 _atom_site_fract_z
 _atom_site_occupancy
  F  F0  1  0.12500000  0.12500000  0.12500000  1
  Li  Li1  1  0.50000000  0.50000000  0.50000000  1
  Li  Li2  1  0.25000000  0.25000000  0.25000000  1
  Li  Li3  1  0.75000000  0.75000000  0.75000000  1
  Li  Li4  1  0.94445570  0.51957933  0.93700221  1
  Sc  Sc5  1  0.28963025  0.04290139  0.27301099  1
