# generated using pymatgen
data_LiF
_symmetry_space_group_name_H-M   'P 1'
_cell_length_a   11.23054370
_cell_length_b   11.23054370
_cell_length_c   12.73943660
_cell_angle_alpha   90.00000000
_cell_angle_beta   90.00000000
_cell_angle_gamma   120.00000000
_symmetry_Int_Tables_number   1
_chemical_formula_structural   LiF
_chemical_formula_sum   'Li49 F49'
_cell_volume   1391.49746025
_cell_formula_units_Z   49
loop_
 _symmetry_equiv_pos_site_id
 _symmetry_equiv_pos_as_xyz
  1  'x, y, z'
loop_
 _atom_site_type_symbol
 _atom_site_label
 _atom_site_symmetry_multiplicity
 _atom_site_fract_x
 _atom_site_fract_y
 _atom_site_fract_z
 _atom_site_occupancy
  F  F0  1  0.33333333  0.66666667  0.85743047  1
  F  F1  1  0.33333333  0.66666667  0.14256953  1
  F  F2  1  0.59465384  0.28957333  0.08625918  1
  F  F3  1  0.71042667  0.30508051  0.08625918  1
  F  F4  1  0.69491949  0.40534616  0.08625918  1
  F  F5  1  0.71042667  0.40534616  0.91374082  1
  F  F6  1  0.69491949  0.28957333  0.91374082  1
  F  F7  1  0.59465384  0.30508051  0.91374082  1
  F  F8  1  0.18129384  0.37420106  0.07809340  1
  F  F9  1  0.62579894  0.80709278  0.07809340  1
  F  F10  1  0.19290722  0.81870616  0.07809340  1
  F  F11  1  0.62579894  0.81870616  0.92190660  1
  F  F12  1  0.19290722  0.37420106  0.92190660  1
  F  F13  1  0.18129384  0.80709278  0.92190660  1
  F  F14  1  0.66666667  0.33333333  0.00000000  1
  F  F15  1  0.00000000  0.00000000  0.73105815  1
  F  F16  1  0.00000000  0.00000000  0.26894185  1
  F  F17  1  0.61956044  0.85186744  0.20974315  1
  F  F18  1  0.14813256  0.76769300  0.20974315  1
  F  F19  1  0.23230700  0.38043956  0.20974315  1
  F  F20  1  0.14813256  0.38043956  0.79025685  1
  F  F21  1  0.23230700  0.85186744  0.79025685  1
  F  F22  1  0.61956044  0.76769300  0.79025685  1
  F  F23  1  0.42463676  0.57536324  0.50000000  1
  F  F24  1  0.42463676  0.84927352  0.50000000  1
  F  F25  1  0.15072648  0.57536324  0.50000000  1
  F  F26  1  0.69154256  0.07218106  0.32462102  1
  F  F27  1  0.92781894  0.61936150  0.32462102  1
  F  F28  1  0.38063850  0.30845744  0.32462102  1
  F  F29  1  0.92781894  0.30845744  0.67537898  1
  F  F30  1  0.38063850  0.07218106  0.67537898  1
  F  F31  1  0.69154256  0.61936150  0.67537898  1
  F  F32  1  0.87716516  0.00299762  0.43651745  1
  F  F33  1  0.99700238  0.87416754  0.43651745  1
  F  F34  1  0.12583246  0.12283484  0.43651745  1
  F  F35  1  0.99700238  0.12283484  0.56348255  1
  F  F36  1  0.12583246  0.00299762  0.56348255  1
  F  F37  1  0.87716516  0.87416754  0.56348255  1
  F  F38  1  0.66666667  0.33333333  0.21953059  1
  F  F39  1  0.66666667  0.33333333  0.78046941  1
  F  F40  1  0.69166817  0.62494173  0.80169161  1
  F  F41  1  0.37505827  0.06672644  0.80169161  1
  F  F42  1  0.93327356  0.30833183  0.80169161  1
  F  F43  1  0.37505827  0.30833183  0.19830839  1
  F  F44  1  0.93327356  0.62494173  0.19830839  1
  F  F45  1  0.69166817  0.06672644  0.19830839  1
  F  F46  1  0.45615464  0.54384536  0.00000000  1
  F  F47  1  0.45615464  0.91230928  0.00000000  1
  F  F48  1  0.08769072  0.54384536  -0.00000000  1
  Li  Li49  1  0.29017323  0.70982677  -0.00000000  1
  Li  Li50  1  0.29017323  0.58034647  0.00000000  1
  Li  Li51  1  0.41965353  0.70982677  -0.00000000  1
  Li  Li52  1  0.00000000  0.00000000  0.00000000  1
  Li  Li53  1  0.02363480  0.34538918  0.40605808  1
  Li  Li54  1  -0.34538918  -0.32175437  0.40605808  1
  Li  Li55  1  0.32175437  -0.02363480  0.40605808  1
  Li  Li56  1  -0.34538918  -0.02363480  -0.40605808  1
  Li  Li57  1  0.32175437  0.34538918  -0.40605808  1
  Li  Li58  1  0.02363480  -0.32175437  -0.40605808  1
  Li  Li59  1  0.14621148  0.73633590  0.39940971  1
  Li  Li60  1  0.26366410  0.40987558  0.39940971  1
  Li  Li61  1  0.59012442  0.85378852  0.39940971  1
  Li  Li62  1  0.26366410  0.85378852  0.60059029  1
  Li  Li63  1  0.59012442  0.73633590  0.60059029  1
  Li  Li64  1  0.14621148  0.40987558  0.60059029  1
  Li  Li65  1  0.13781679  0.14768107  0.13502798  1
  Li  Li66  1  0.85231893  0.99013572  0.13502798  1
  Li  Li67  1  0.00986428  0.86218321  0.13502798  1
  Li  Li68  1  0.85231893  0.86218321  0.86497202  1
  Li  Li69  1  0.00986428  0.14768107  0.86497202  1
  Li  Li70  1  0.13781679  0.99013572  0.86497202  1
  Li  Li71  1  0.00000000  0.00000000  0.61746632  1
  Li  Li72  1  0.00000000  0.00000000  0.38253368  1
  Li  Li73  1  0.87754643  0.37072878  0.01034875  1
  Li  Li74  1  0.62927122  0.50681766  0.01034875  1
  Li  Li75  1  0.49318234  0.12245357  0.01034875  1
  Li  Li76  1  0.62927122  0.12245357  0.98965125  1
  Li  Li77  1  0.49318234  0.37072878  0.98965125  1
  Li  Li78  1  0.87754643  0.50681766  0.98965125  1
  Li  Li79  1  0.53470705  0.64439311  0.95756331  1
  Li  Li80  1  0.35560689  0.89031394  0.95756331  1
  Li  Li81  1  0.10968606  0.46529295  0.95756331  1
  Li  Li82  1  0.35560689  0.46529295  0.04243669  1
  Li  Li83  1  0.10968606  0.64439311  0.04243669  1
  Li  Li84  1  0.53470705  0.89031394  0.04243669  1
  Li  Li85  1  0.92327513  0.43892401  0.68256814  1
  Li  Li86  1  0.56107599  0.48435112  0.68256814  1
  Li  Li87  1  0.51564888  0.07672487  0.68256814  1
  Li  Li88  1  0.56107599  0.07672487  0.31743186  1
  Li  Li89  1  0.51564888  0.43892401  0.31743186  1
  Li  Li90  1  0.92327513  0.48435112  0.31743186  1
  Li  Li91  1  0.00000000  0.00000000  0.50000000  1
  Li  Li92  1  0.14324889  0.98719132  0.45906683  1
  Li  Li93  1  0.01280868  0.15605757  0.45906683  1
  Li  Li94  1  0.84394243  0.85675111  0.45906683  1
  Li  Li95  1  0.01280868  0.85675111  0.54093317  1
  Li  Li96  1  0.84394243  0.98719132  0.54093317  1
  Li  Li97  1  0.14324889  0.15605757  0.54093317  1
