# generated using pymatgen
data_LiF
_symmetry_space_group_name_H-M   'P 1'
_cell_length_a   18.94985573
_cell_length_b   9.06192753
_cell_length_c   10.30382292
_cell_angle_alpha   90.00000000
_cell_angle_beta   90.00000000
_cell_angle_gamma   90.00000000
_symmetry_Int_Tables_number   1
_chemical_formula_structural   LiF
_chemical_formula_sum   'Li52 F52'
_cell_volume   1769.39533793
_cell_formula_units_Z   52
loop_
 _symmetry_equiv_pos_site_id
 _symmetry_equiv_pos_as_xyz
  1  'x, y, z'
loop_
 _atom_site_type_symbol
 _atom_site_label
 _atom_site_symmetry_multiplicity
 _atom_site_fract_x
 _atom_site_fract_y
 _atom_site_fract_z
 _atom_site_occupancy
  F  F0  1  0.25711641  0.59322919  0.52208659  1
  F  F1  1  0.24288359  0.40677081  0.02208659  1
  F  F2  1  0.74288359  0.09322919  0.47791341  1
  F  F3  1  0.75711641  0.90677081  0.97791341  1
  F  F4  1  0.74288359  0.40677081  0.47791341  1
  F  F5  1  0.75711641  0.59322919  0.97791341  1
  F  F6  1  0.25711641  0.90677081  0.52208659  1
  F  F7  1  0.24288359  0.09322919  0.02208659  1
  F  F8  1  0.86374540  0.94923621  0.98547752  1
  F  F9  1  0.63625460  0.05076379  0.48547752  1
  F  F10  1  0.13625460  0.44923621  0.01452248  1
  F  F11  1  0.36374540  0.55076379  0.51452248  1
  F  F12  1  0.13625460  0.05076379  0.01452248  1
  F  F13  1  0.36374540  0.94923621  0.51452248  1
  F  F14  1  0.86374540  0.55076379  0.98547752  1
  F  F15  1  0.63625460  0.44923621  0.48547752  1
  F  F16  1  0.11010218  0.25000000  0.20544562  1
  F  F17  1  0.38989782  0.75000000  0.70544562  1
  F  F18  1  0.88989782  0.75000000  0.79455438  1
  F  F19  1  0.61010218  0.25000000  0.29455438  1
  F  F20  1  0.49126876  0.61841955  0.89851650  1
  F  F21  1  0.00873124  0.38158045  0.39851650  1
  F  F22  1  0.50873124  0.11841955  0.10148350  1
  F  F23  1  0.99126876  0.88158045  0.60148350  1
  F  F24  1  0.50873124  0.38158045  0.10148350  1
  F  F25  1  0.99126876  0.61841955  0.60148350  1
  F  F26  1  0.49126876  0.88158045  0.89851650  1
  F  F27  1  0.00873124  0.11841955  0.39851650  1
  F  F28  1  0.02407570  0.31991135  0.39227063  1
  F  F29  1  0.47592430  0.68008865  0.89227063  1
  F  F30  1  0.97592430  0.81991135  0.60772937  1
  F  F31  1  0.52407570  0.18008865  0.10772937  1
  F  F32  1  0.97592430  0.68008865  0.60772937  1
  F  F33  1  0.52407570  0.31991135  0.10772937  1
  F  F34  1  0.02407570  0.18008865  0.39227063  1
  F  F35  1  0.47592430  0.81991135  0.89227063  1
  F  F36  1  0.06282480  0.25000000  0.71316893  1
  F  F37  1  0.43717520  0.75000000  0.21316893  1
  F  F38  1  0.93717520  0.75000000  0.28683107  1
  F  F39  1  0.56282480  0.25000000  0.78683107  1
  F  F40  1  0.22105896  0.03071217  0.01940609  1
  F  F41  1  0.27894104  0.96928783  0.51940609  1
  F  F42  1  0.77894104  0.53071217  0.98059391  1
  F  F43  1  0.72105896  0.46928783  0.48059391  1
  F  F44  1  0.77894104  0.96928783  0.98059391  1
  F  F45  1  0.72105896  0.03071217  0.48059391  1
  F  F46  1  0.22105896  0.46928783  0.01940609  1
  F  F47  1  0.27894104  0.53071217  0.51940609  1
  F  F48  1  0.37241631  0.25000000  0.83489908  1
  F  F49  1  0.12758369  0.75000000  0.33489908  1
  F  F50  1  0.62758369  0.75000000  0.16510092  1
  F  F51  1  0.87241631  0.25000000  0.66510092  1
  Li  Li52  1  0.00000000  0.00000000  0.00000000  1
  Li  Li53  1  0.50000000  0.00000000  0.50000000  1
  Li  Li54  1  0.00000000  0.50000000  0.00000000  1
  Li  Li55  1  0.50000000  0.50000000  0.50000000  1
  Li  Li56  1  0.15270344  0.34963531  0.99801943  1
  Li  Li57  1  0.34729656  -0.34963531  1.49801943  1
  Li  Li58  1  -0.15270344  0.84963531  -0.99801943  1
  Li  Li59  1  0.65270344  0.15036469  -0.49801943  1
  Li  Li60  1  -0.15270344  -0.34963531  -0.99801943  1
  Li  Li61  1  0.65270344  0.34963531  -0.49801943  1
  Li  Li62  1  0.15270344  0.15036469  0.99801943  1
  Li  Li63  1  0.34729656  0.84963531  1.49801943  1
  Li  Li64  1  0.22352983  0.06195150  0.36606313  1
  Li  Li65  1  0.27647017  0.93804850  0.86606313  1
  Li  Li66  1  0.77647017  0.56195150  0.63393687  1
  Li  Li67  1  0.72352983  0.43804850  0.13393687  1
  Li  Li68  1  0.77647017  0.93804850  0.63393687  1
  Li  Li69  1  0.72352983  0.06195150  0.13393687  1
  Li  Li70  1  0.22352983  0.43804850  0.36606313  1
  Li  Li71  1  0.27647017  0.56195150  0.86606313  1
  Li  Li72  1  0.45871154  0.35704841  0.08800662  1
  Li  Li73  1  0.04128846  0.64295159  0.58800662  1
  Li  Li74  1  0.54128846  0.85704841  0.91199338  1
  Li  Li75  1  0.95871154  0.14295159  0.41199338  1
  Li  Li76  1  0.54128846  0.64295159  0.91199338  1
  Li  Li77  1  0.95871154  0.35704841  0.41199338  1
  Li  Li78  1  0.45871154  0.14295159  0.08800662  1
  Li  Li79  1  0.04128846  0.85704841  0.58800662  1
  Li  Li80  1  0.71099855  0.25000000  0.45136227  1
  Li  Li81  1  0.78900145  0.75000000  0.95136227  1
  Li  Li82  1  0.28900145  0.75000000  0.54863773  1
  Li  Li83  1  0.21099855  0.25000000  0.04863773  1
  Li  Li84  1  0.25494873  0.25000000  0.44217842  1
  Li  Li85  1  0.24505127  0.75000000  0.94217842  1
  Li  Li86  1  0.74505127  0.75000000  0.55782158  1
  Li  Li87  1  0.75494873  0.25000000  0.05782158  1
  Li  Li88  1  0.42568136  0.25000000  0.68069258  1
  Li  Li89  1  0.07431864  0.75000000  0.18069258  1
  Li  Li90  1  0.57431864  0.75000000  0.31930742  1
  Li  Li91  1  0.92568136  0.25000000  0.81930742  1
  Li  Li92  1  0.00000000  0.00000000  0.50000000  1
  Li  Li93  1  0.50000000  0.00000000  0.00000000  1
  Li  Li94  1  0.00000000  0.50000000  0.50000000  1
  Li  Li95  1  0.50000000  0.50000000  -0.00000000  1
  Li  Li96  1  0.55530851  0.25000000  0.03629321  1
  Li  Li97  1  0.94469149  0.75000000  0.53629321  1
  Li  Li98  1  0.44469149  0.75000000  0.96370679  1
  Li  Li99  1  0.05530851  0.25000000  0.46370679  1
  Li  Li100  1  0.31527053  0.25000000  0.56490619  1
  Li  Li101  1  0.18472947  0.75000000  0.06490619  1
  Li  Li102  1  0.68472947  0.75000000  0.43509381  1
  Li  Li103  1  0.81527053  0.25000000  0.93509381  1
