# generated using pymatgen
data_Li2Y2MoP3Se2
_symmetry_space_group_name_H-M   'P 1'
_cell_length_a   4.04330507
_cell_length_b   4.36993561
_cell_length_c   6.65316114
_cell_angle_alpha   96.46959467
_cell_angle_beta   103.38394628
_cell_angle_gamma   112.55735758
_symmetry_Int_Tables_number   1
_chemical_formula_structural   Li2Y2MoP3Se2
_chemical_formula_sum   'Li2 Y2 Mo1 P3 Se2'
_cell_volume   102.92290796
_cell_formula_units_Z   1
loop_
 _symmetry_equiv_pos_site_id
 _symmetry_equiv_pos_as_xyz
  1  'x, y, z'
loop_
 _atom_site_type_symbol
 _atom_site_label
 _atom_site_symmetry_multiplicity
 _atom_site_fract_x
 _atom_site_fract_y
 _atom_site_fract_z
 _atom_site_occupancy
  Se  Se0  1  0.00000000  0.00000000  0.00000000  1
  Se  Se1  1  0.50000000  0.50000000  0.50000000  1
  P  P2  1  0.50000000  0.50000000  0.00000000  1
  P  P3  1  0.50000000  0.00000000  0.50000000  1
  P  P4  1  0.00000000  0.50000000  0.50000000  1
  Mo  Mo5  1  0.83541318  0.88255991  0.15165572  1
  Li  Li6  1  0.02261059  0.31747058  0.14025534  1
  Li  Li7  1  0.39731265  0.96244679  0.94843617  1
  Y  Y8  1  0.76629791  0.63162838  0.46252419  1
  Y  Y9  1  0.17115739  0.72646641  0.71752284  1
