# generated using pymatgen
data_Li4TeF2
_symmetry_space_group_name_H-M   'P 1'
_cell_length_a   12.99510734
_cell_length_b   24.54060076
_cell_length_c   9.15531987
_cell_angle_alpha   90.00000000
_cell_angle_beta   90.00000000
_cell_angle_gamma   90.00000000
_symmetry_Int_Tables_number   1
_chemical_formula_structural   Li4TeF2
_chemical_formula_sum   'Li96 Te24 F48'
_cell_volume   2919.70237872
_cell_formula_units_Z   24
loop_
 _symmetry_equiv_pos_site_id
 _symmetry_equiv_pos_as_xyz
  1  'x, y, z'
loop_
 _atom_site_type_symbol
 _atom_site_label
 _atom_site_symmetry_multiplicity
 _atom_site_fract_x
 _atom_site_fract_y
 _atom_site_fract_z
 _atom_site_occupancy
  F  F0  1  0.88851401  0.32376916  0.26950814  1
  F  F1  1  -0.88851401  -0.32376916  0.26950814  1
  F  F2  1  -0.38851401  0.82376916  -0.26950814  1
  F  F3  1  1.38851401  0.17623084  -0.26950814  1
  F  F4  1  -0.88851401  -0.32376916  -0.26950814  1
  F  F5  1  0.88851401  0.32376916  -0.26950814  1
  F  F6  1  1.38851401  0.17623084  0.26950814  1
  F  F7  1  -0.38851401  0.82376916  0.26950814  1
  F  F8  1  0.82670346  0.32554616  0.54443692  1
  F  F9  1  0.17329654  0.67445384  0.54443692  1
  F  F10  1  0.67329654  0.82554616  0.45556308  1
  F  F11  1  0.32670346  0.17445384  0.45556308  1
  F  F12  1  0.17329654  0.67445384  0.45556308  1
  F  F13  1  0.82670346  0.32554616  0.45556308  1
  F  F14  1  0.32670346  0.17445384  0.54443692  1
  F  F15  1  0.67329654  0.82554616  0.54443692  1
  F  F16  1  0.83290981  0.96251749  0.83831064  1
  F  F17  1  0.16709019  0.03748251  0.83831064  1
  F  F18  1  0.66709019  0.46251749  0.16168936  1
  F  F19  1  0.33290981  0.53748251  0.16168936  1
  F  F20  1  0.16709019  0.03748251  0.16168936  1
  F  F21  1  0.83290981  0.96251749  0.16168936  1
  F  F22  1  0.33290981  0.53748251  0.83831064  1
  F  F23  1  0.66709019  0.46251749  0.83831064  1
  F  F24  1  0.25907247  0.19064987  0.84630545  1
  F  F25  1  0.74092753  0.80935013  0.84630545  1
  F  F26  1  0.24092753  0.69064987  0.15369455  1
  F  F27  1  0.75907247  0.30935013  0.15369455  1
  F  F28  1  0.74092753  0.80935013  0.15369455  1
  F  F29  1  0.25907247  0.19064987  0.15369455  1
  F  F30  1  0.75907247  0.30935013  0.84630545  1
  F  F31  1  0.24092753  0.69064987  0.84630545  1
  F  F32  1  0.00000000  0.50000000  0.53418095  1
  F  F33  1  0.50000000  0.00000000  0.46581905  1
  F  F34  1  0.00000000  0.50000000  0.46581905  1
  F  F35  1  0.50000000  0.00000000  0.53418095  1
  F  F36  1  0.00000000  0.00000000  0.63735835  1
  F  F37  1  0.50000000  0.50000000  0.36264165  1
  F  F38  1  0.00000000  0.00000000  0.36264165  1
  F  F39  1  0.50000000  0.50000000  0.63735835  1
  F  F40  1  0.22610799  0.31164922  0.27340299  1
  F  F41  1  0.77389201  0.68835078  0.27340299  1
  F  F42  1  0.27389201  0.81164922  0.72659701  1
  F  F43  1  0.72610799  0.18835078  0.72659701  1
  F  F44  1  0.77389201  0.68835078  0.72659701  1
  F  F45  1  0.22610799  0.31164922  0.72659701  1
  F  F46  1  0.72610799  0.18835078  0.27340299  1
  F  F47  1  0.27389201  0.81164922  0.27340299  1
  Li  Li48  1  0.55448425  0.61420509  0.24723173  1
  Li  Li49  1  0.44551575  0.38579491  0.24723173  1
  Li  Li50  1  0.94551575  0.11420509  0.75276827  1
  Li  Li51  1  0.05448425  0.88579491  0.75276827  1
  Li  Li52  1  0.44551575  0.38579491  0.75276827  1
  Li  Li53  1  0.55448425  0.61420509  0.75276827  1
  Li  Li54  1  0.05448425  0.88579491  0.24723173  1
  Li  Li55  1  0.94551575  0.11420509  0.24723173  1
  Li  Li56  1  0.12207879  0.11002452  0.86266775  1
  Li  Li57  1  0.87792121  0.88997548  0.86266775  1
  Li  Li58  1  0.37792121  0.61002452  0.13733225  1
  Li  Li59  1  0.62207879  0.38997548  0.13733225  1
  Li  Li60  1  0.87792121  0.88997548  0.13733225  1
  Li  Li61  1  0.12207879  0.11002452  0.13733225  1
  Li  Li62  1  0.62207879  0.38997548  0.86266775  1
  Li  Li63  1  0.37792121  0.61002452  0.86266775  1
  Li  Li64  1  0.05633337  0.92547732  0.00000000  1
  Li  Li65  1  0.94366663  0.07452268  0.00000000  1
  Li  Li66  1  0.44366663  0.42547732  0.00000000  1
  Li  Li67  1  0.55633337  0.57452268  0.00000000  1
  Li  Li68  1  0.96718579  0.67506362  0.72164069  1
  Li  Li69  1  0.03281421  0.32493638  0.72164069  1
  Li  Li70  1  0.53281421  0.17506362  0.27835931  1
  Li  Li71  1  0.46718579  0.82493638  0.27835931  1
  Li  Li72  1  0.03281421  0.32493638  0.27835931  1
  Li  Li73  1  0.96718579  0.67506362  0.27835931  1
  Li  Li74  1  0.46718579  0.82493638  0.72164069  1
  Li  Li75  1  0.53281421  0.17506362  0.72164069  1
  Li  Li76  1  0.27933079  0.37829923  0.50000000  1
  Li  Li77  1  0.72066921  0.62170077  0.50000000  1
  Li  Li78  1  0.22066921  0.87829923  0.50000000  1
  Li  Li79  1  0.77933079  0.12170077  0.50000000  1
  Li  Li80  1  0.52234573  0.57155392  0.50000000  1
  Li  Li81  1  0.47765427  0.42844608  0.50000000  1
  Li  Li82  1  0.97765427  0.07155392  0.50000000  1
  Li  Li83  1  0.02234573  0.92844608  0.50000000  1
  Li  Li84  1  0.00000000  0.50000000  0.00000000  1
  Li  Li85  1  0.50000000  0.00000000  0.00000000  1
  Li  Li86  1  0.00000000  0.50000000  0.75556884  1
  Li  Li87  1  0.50000000  0.00000000  0.24443116  1
  Li  Li88  1  0.00000000  0.50000000  0.24443116  1
  Li  Li89  1  0.50000000  0.00000000  0.75556884  1
  Li  Li90  1  0.82133710  0.29198786  0.33618054  1
  Li  Li91  1  0.17866290  0.70801214  0.33618054  1
  Li  Li92  1  0.67866290  0.79198786  0.66381946  1
  Li  Li93  1  0.32133710  0.20801214  0.66381946  1
  Li  Li94  1  0.17866290  0.70801214  0.66381946  1
  Li  Li95  1  0.82133710  0.29198786  0.66381946  1
  Li  Li96  1  0.32133710  0.20801214  0.33618054  1
  Li  Li97  1  0.67866290  0.79198786  0.33618054  1
  Li  Li98  1  0.62820287  0.21403444  0.73121724  1
  Li  Li99  1  0.37179713  0.78596556  0.73121724  1
  Li  Li100  1  0.87179713  0.71403444  0.26878276  1
  Li  Li101  1  0.12820287  0.28596556  0.26878276  1
  Li  Li102  1  0.37179713  0.78596556  0.26878276  1
  Li  Li103  1  0.62820287  0.21403444  0.26878276  1
  Li  Li104  1  0.12820287  0.28596556  0.73121724  1
  Li  Li105  1  0.87179713  0.71403444  0.73121724  1
  Li  Li106  1  0.00000000  0.00000000  0.50000000  1
  Li  Li107  1  0.50000000  0.50000000  0.50000000  1
  Li  Li108  1  0.21037383  0.36819103  0.88286342  1
  Li  Li109  1  0.78962617  0.63180897  0.88286342  1
  Li  Li110  1  0.28962617  0.86819103  0.11713658  1
  Li  Li111  1  0.71037383  0.13180897  0.11713658  1
  Li  Li112  1  0.78962617  0.63180897  0.11713658  1
  Li  Li113  1  0.21037383  0.36819103  0.11713658  1
  Li  Li114  1  0.71037383  0.13180897  0.88286342  1
  Li  Li115  1  0.28962617  0.86819103  0.88286342  1
  Li  Li116  1  0.27844415  0.15544924  0.00000000  1
  Li  Li117  1  0.72155585  0.84455076  0.00000000  1
  Li  Li118  1  0.22155585  0.65544924  0.00000000  1
  Li  Li119  1  0.77844415  0.34455076  -0.00000000  1
  Li  Li120  1  0.89644722  0.63741151  0.00000000  1
  Li  Li121  1  0.10355278  0.36258849  0.00000000  1
  Li  Li122  1  0.60355278  0.13741151  -0.00000000  1
  Li  Li123  1  0.39644722  0.86258849  0.00000000  1
  Li  Li124  1  0.92878948  0.55235451  0.22720470  1
  Li  Li125  1  0.07121052  0.44764549  0.22720470  1
  Li  Li126  1  0.57121052  0.05235451  0.77279530  1
  Li  Li127  1  0.42878948  0.94764549  0.77279530  1
  Li  Li128  1  0.07121052  0.44764549  0.77279530  1
  Li  Li129  1  0.92878948  0.55235451  0.77279530  1
  Li  Li130  1  0.42878948  0.94764549  0.22720470  1
  Li  Li131  1  0.57121052  0.05235451  0.22720470  1
  Li  Li132  1  0.29156538  0.50516209  -0.00000000  1
  Li  Li133  1  0.70843462  0.49483791  0.00000000  1
  Li  Li134  1  0.20843462  0.00516209  -0.00000000  1
  Li  Li135  1  0.79156538  0.99483791  0.00000000  1
  Li  Li136  1  0.04001539  0.82870015  0.41571814  1
  Li  Li137  1  0.95998461  0.17129985  0.41571814  1
  Li  Li138  1  0.45998461  0.32870015  0.58428186  1
  Li  Li139  1  0.54001539  0.67129985  0.58428186  1
  Li  Li140  1  0.95998461  0.17129985  0.58428186  1
  Li  Li141  1  0.04001539  0.82870015  0.58428186  1
  Li  Li142  1  0.54001539  0.67129985  0.41571814  1
  Li  Li143  1  0.45998461  0.32870015  0.41571814  1
  Te  Te144  1  0.03184303  0.57909681  0.90995735  1
  Te  Te145  1  0.96815697  0.42090319  0.90995735  1
  Te  Te146  1  0.46815697  0.07909681  0.09004265  1
  Te  Te147  1  0.53184303  0.92090319  0.09004265  1
  Te  Te148  1  0.96815697  0.42090319  0.09004265  1
  Te  Te149  1  0.03184303  0.57909681  0.09004265  1
  Te  Te150  1  0.53184303  0.92090319  0.90995735  1
  Te  Te151  1  0.46815697  0.07909681  0.90995735  1
  Te  Te152  1  0.43448212  0.73174764  0.36971586  1
  Te  Te153  1  0.56551788  0.26825236  0.36971586  1
  Te  Te154  1  0.06551788  0.23174764  0.63028414  1
  Te  Te155  1  0.93448212  0.76825236  0.63028414  1
  Te  Te156  1  0.56551788  0.26825236  0.63028414  1
  Te  Te157  1  0.43448212  0.73174764  0.63028414  1
  Te  Te158  1  0.93448212  0.76825236  0.36971586  1
  Te  Te159  1  0.06551788  0.23174764  0.36971586  1
  Te  Te160  1  0.89204622  0.35877840  0.07547099  1
  Te  Te161  1  0.10795378  0.64122160  0.07547099  1
  Te  Te162  1  0.60795378  0.85877840  0.92452901  1
  Te  Te163  1  0.39204622  0.14122160  0.92452901  1
  Te  Te164  1  0.10795378  0.64122160  0.92452901  1
  Te  Te165  1  0.89204622  0.35877840  0.92452901  1
  Te  Te166  1  0.39204622  0.14122160  0.07547099  1
  Te  Te167  1  0.60795378  0.85877840  0.07547099  1
