# generated using pymatgen
data_Li2YAs4P3
_symmetry_space_group_name_H-M   'P 1'
_cell_length_a   5.73350668
_cell_length_b   5.62602207
_cell_length_c   7.23612287
_cell_angle_alpha   93.97484371
_cell_angle_beta   98.65638325
_cell_angle_gamma   105.96536742
_symmetry_Int_Tables_number   1
_chemical_formula_structural   Li2YAs4P3
_chemical_formula_sum   'Li2 Y1 As4 P3'
_cell_volume   220.34456613
_cell_formula_units_Z   1
loop_
 _symmetry_equiv_pos_site_id
 _symmetry_equiv_pos_as_xyz
  1  'x, y, z'
loop_
 _atom_site_type_symbol
 _atom_site_label
 _atom_site_symmetry_multiplicity
 _atom_site_fract_x
 _atom_site_fract_y
 _atom_site_fract_z
 _atom_site_occupancy
  P  P0  1  0.00000000  0.00000000  0.00000000  1
  P  P1  1  0.50000000  0.50000000  0.50000000  1
  P  P2  1  0.25000000  0.25000000  0.25000000  1
  As  As3  1  0.75000000  0.25000000  0.00000000  1
  As  As4  1  0.25000000  0.75000000  0.50000000  1
  As  As5  1  0.32943919  0.37948281  0.25858679  1
  As  As6  1  0.19568173  0.71324700  0.71901256  1
  Li  Li7  1  0.00323824  0.60252972  0.29435485  1
  Li  Li8  1  0.14248270  0.77891170  0.95108161  1
  Y  Y9  1  0.95754172  0.63240878  0.46801705  1
