# generated using pymatgen
data_LiF
_symmetry_space_group_name_H-M   'P 1'
_cell_length_a   7.17159662
_cell_length_b   7.17159662
_cell_length_c   16.95657674
_cell_angle_alpha   90.00000000
_cell_angle_beta   90.00000000
_cell_angle_gamma   120.00000000
_symmetry_Int_Tables_number   1
_chemical_formula_structural   LiF
_chemical_formula_sum   'Li22 F22'
_cell_volume   755.26701664
_cell_formula_units_Z   22
loop_
 _symmetry_equiv_pos_site_id
 _symmetry_equiv_pos_as_xyz
  1  'x, y, z'
loop_
 _atom_site_type_symbol
 _atom_site_label
 _atom_site_symmetry_multiplicity
 _atom_site_fract_x
 _atom_site_fract_y
 _atom_site_fract_z
 _atom_site_occupancy
  F  F0  1  0.66666667  0.33333333  0.90844611  1
  F  F1  1  0.66666667  0.33333333  0.09155389  1
  F  F2  1  0.08364021  0.88239726  0.82876048  1
  F  F3  1  0.11760274  0.20124295  0.82876048  1
  F  F4  1  0.79875705  0.91635979  0.82876048  1
  F  F5  1  0.11760274  0.91635979  0.17123952  1
  F  F6  1  0.79875705  0.88239726  0.17123952  1
  F  F7  1  0.08364021  0.20124295  0.17123952  1
  F  F8  1  0.98100273  0.90947918  0.95914495  1
  F  F9  1  0.09052082  0.07152356  0.95914495  1
  F  F10  1  0.92847644  0.01899727  0.95914495  1
  F  F11  1  0.09052082  0.01899727  0.04085505  1
  F  F12  1  0.92847644  0.90947918  0.04085505  1
  F  F13  1  0.98100273  0.07152356  0.04085505  1
  F  F14  1  0.42221972  0.20664296  0.79798945  1
  F  F15  1  0.79335704  0.21557676  0.79798945  1
  F  F16  1  0.78442324  0.57778028  0.79798945  1
  F  F17  1  0.79335704  0.57778028  0.20201055  1
  F  F18  1  0.78442324  0.20664296  0.20201055  1
  F  F19  1  0.42221972  0.21557676  0.20201055  1
  F  F20  1  0.00000000  0.00000000  0.25179152  1
  F  F21  1  0.00000000  0.00000000  0.74820848  1
  Li  Li22  1  0.43537551  0.30160006  0.67207904  1
  Li  Li23  1  -0.30160006  0.13377545  0.67207904  1
  Li  Li24  1  -0.13377545  -0.43537551  0.67207904  1
  Li  Li25  1  -0.30160006  -0.43537551  -0.67207904  1
  Li  Li26  1  -0.13377545  0.30160006  -0.67207904  1
  Li  Li27  1  0.43537551  0.13377545  -0.67207904  1
  Li  Li28  1  0.33333333  0.66666667  0.06124148  1
  Li  Li29  1  0.33333333  0.66666667  0.93875852  1
  Li  Li30  1  0.10120783  0.89879217  0.50000000  1
  Li  Li31  1  0.10120783  0.20241565  0.50000000  1
  Li  Li32  1  0.79758435  0.89879217  0.50000000  1
  Li  Li33  1  0.66666667  0.33333333  0.50000000  1
  Li  Li34  1  0.15524283  0.96833482  0.40275460  1
  Li  Li35  1  0.03166518  0.18690801  0.40275460  1
  Li  Li36  1  0.81309199  0.84475717  0.40275460  1
  Li  Li37  1  0.03166518  0.84475717  0.59724540  1
  Li  Li38  1  0.81309199  0.96833482  0.59724540  1
  Li  Li39  1  0.15524283  0.18690801  0.59724540  1
  Li  Li40  1  0.82247423  0.17752577  0.00000000  1
  Li  Li41  1  0.82247423  0.64494847  0.00000000  1
  Li  Li42  1  0.35505153  0.17752577  0.00000000  1
  Li  Li43  1  0.66666667  0.33333333  0.00000000  1
