# generated using pymatgen
data_LiF
_symmetry_space_group_name_H-M   'P 1'
_cell_length_a   8.58863895
_cell_length_b   8.96903968
_cell_length_c   5.61688938
_cell_angle_alpha   90.00000000
_cell_angle_beta   90.00000000
_cell_angle_gamma   90.00000000
_symmetry_Int_Tables_number   1
_chemical_formula_structural   LiF
_chemical_formula_sum   'Li24 F24'
_cell_volume   432.67934412
_cell_formula_units_Z   24
loop_
 _symmetry_equiv_pos_site_id
 _symmetry_equiv_pos_as_xyz
  1  'x, y, z'
loop_
 _atom_site_type_symbol
 _atom_site_label
 _atom_site_symmetry_multiplicity
 _atom_site_fract_x
 _atom_site_fract_y
 _atom_site_fract_z
 _atom_site_occupancy
  F  F0  1  0.00000000  0.50000000  0.00000000  1
  F  F1  1  0.50000000  0.00000000  0.00000000  1
  F  F2  1  0.00000000  0.00000000  0.22206818  1
  F  F3  1  0.50000000  0.50000000  0.77793182  1
  F  F4  1  0.00000000  0.00000000  0.77793182  1
  F  F5  1  0.50000000  0.50000000  0.22206818  1
  F  F6  1  0.12541081  0.32811271  0.50000000  1
  F  F7  1  0.87458919  0.67188729  0.50000000  1
  F  F8  1  0.37458919  0.82811271  0.50000000  1
  F  F9  1  0.62541081  0.17188729  0.50000000  1
  F  F10  1  0.00000000  0.50000000  0.50000000  1
  F  F11  1  0.50000000  0.00000000  0.50000000  1
  F  F12  1  0.96906894  0.12812433  0.79485556  1
  F  F13  1  -0.96906894  -0.12812433  0.79485556  1
  F  F14  1  -0.46906894  0.62812433  -0.79485556  1
  F  F15  1  1.46906894  0.37187567  -0.79485556  1
  F  F16  1  -0.96906894  -0.12812433  -0.79485556  1
  F  F17  1  0.96906894  0.12812433  -0.79485556  1
  F  F18  1  1.46906894  0.37187567  0.79485556  1
  F  F19  1  -0.46906894  0.62812433  0.79485556  1
  F  F20  1  0.98334890  0.24267027  -0.00000000  1
  F  F21  1  0.01665110  0.75732973  -0.00000000  1
  F  F22  1  0.51665110  0.74267027  0.00000000  1
  F  F23  1  0.48334890  0.25732973  0.00000000  1
  Li  Li24  1  0.00000000  0.00000000  0.00000000  1
  Li  Li25  1  0.50000000  0.50000000  0.00000000  1
  Li  Li26  1  0.06092482  0.36999790  0.00000000  1
  Li  Li27  1  0.93907518  0.63000210  -0.00000000  1
  Li  Li28  1  0.43907518  0.86999790  0.00000000  1
  Li  Li29  1  0.56092482  0.13000210  0.00000000  1
  Li  Li30  1  0.32202371  0.39232831  0.38114041  1
  Li  Li31  1  0.67797629  0.60767169  0.38114041  1
  Li  Li32  1  0.17797629  0.89232831  0.61885959  1
  Li  Li33  1  0.82202371  0.10767169  0.61885959  1
  Li  Li34  1  0.67797629  0.60767169  0.61885959  1
  Li  Li35  1  0.32202371  0.39232831  0.61885959  1
  Li  Li36  1  0.82202371  0.10767169  0.38114041  1
  Li  Li37  1  0.17797629  0.89232831  0.38114041  1
  Li  Li38  1  0.00000000  0.50000000  0.79116845  1
  Li  Li39  1  0.50000000  0.00000000  0.20883155  1
  Li  Li40  1  0.00000000  0.50000000  0.20883155  1
  Li  Li41  1  0.50000000  0.00000000  0.79116845  1
  Li  Li42  1  0.98985368  0.71749530  0.50000000  1
  Li  Li43  1  0.01014632  0.28250470  0.50000000  1
  Li  Li44  1  0.51014632  0.21749530  0.50000000  1
  Li  Li45  1  0.48985368  0.78250470  0.50000000  1
  Li  Li46  1  0.00000000  0.00000000  0.50000000  1
  Li  Li47  1  0.50000000  0.50000000  0.50000000  1
