# generated using pymatgen
data_Li3Y2MoP3Se2
_symmetry_space_group_name_H-M   'P 1'
_cell_length_a   5.31149408
_cell_length_b   5.63964611
_cell_length_c   7.28114807
_cell_angle_alpha   94.22832542
_cell_angle_beta   99.20841372
_cell_angle_gamma   106.98350270
_symmetry_Int_Tables_number   1
_chemical_formula_structural   Li3Y2MoP3Se2
_chemical_formula_sum   'Li3 Y2 Mo1 P3 Se2'
_cell_volume   204.22287101
_cell_formula_units_Z   1
loop_
 _symmetry_equiv_pos_site_id
 _symmetry_equiv_pos_as_xyz
  1  'x, y, z'
loop_
 _atom_site_type_symbol
 _atom_site_label
 _atom_site_symmetry_multiplicity
 _atom_site_fract_x
 _atom_site_fract_y
 _atom_site_fract_z
 _atom_site_occupancy
  Se  Se0  1  0.00000000  0.00000000  0.00000000  1
  Se  Se1  1  0.50000000  0.50000000  0.50000000  1
  P  P2  1  0.50000000  0.50000000  0.00000000  1
  P  P3  1  0.50000000  0.00000000  0.50000000  1
  P  P4  1  0.00000000  0.50000000  0.50000000  1
  Mo  Mo5  1  0.78581820  0.90832091  0.74669711  1
  Li  Li6  1  0.63087010  0.02769681  0.29517668  1
  Li  Li7  1  0.89692886  0.64283145  0.84108897  1
  Li  Li8  1  0.68315596  0.17629827  0.20085414  1
  Y  Y9  1  0.63655462  0.42571927  0.41360560  1
  Y  Y10  1  0.81273010  0.52853505  0.22844522  1
