# generated using pymatgen
data_Li2Si4Te3F12
_symmetry_space_group_name_H-M   'P 1'
_cell_length_a   8.40611061
_cell_length_b   20.07427269
_cell_length_c   9.83783602
_cell_angle_alpha   90.00000000
_cell_angle_beta   90.00000000
_cell_angle_gamma   90.00000000
_symmetry_Int_Tables_number   1
_chemical_formula_structural   Li2Si4Te3F12
_chemical_formula_sum   'Li8 Si16 Te12 F48'
_cell_volume   1660.10095293
_cell_formula_units_Z   4
loop_
 _symmetry_equiv_pos_site_id
 _symmetry_equiv_pos_as_xyz
  1  'x, y, z'
loop_
 _atom_site_type_symbol
 _atom_site_label
 _atom_site_symmetry_multiplicity
 _atom_site_fract_x
 _atom_site_fract_y
 _atom_site_fract_z
 _atom_site_occupancy
  F  F0  1  0.00000000  0.00000000  0.50000000  1
  F  F1  1  0.50000000  0.50000000  0.00000000  1
  F  F2  1  0.27051627  0.14946247  0.69180792  1
  F  F3  1  0.72948373  0.85053753  0.69180792  1
  F  F4  1  0.22948373  0.64946247  0.80819208  1
  F  F5  1  0.77051627  0.35053753  0.80819208  1
  F  F6  1  0.72948373  0.85053753  0.30819208  1
  F  F7  1  0.27051627  0.14946247  0.30819208  1
  F  F8  1  0.77051627  0.35053753  0.19180792  1
  F  F9  1  0.22948373  0.64946247  0.19180792  1
  F  F10  1  0.64202519  0.02928898  0.11190502  1
  F  F11  1  0.35797481  0.97071102  0.11190502  1
  F  F12  1  0.85797481  0.52928898  0.38809498  1
  F  F13  1  0.14202519  0.47071102  0.38809498  1
  F  F14  1  0.35797481  0.97071102  0.88809498  1
  F  F15  1  0.64202519  0.02928898  0.88809498  1
  F  F16  1  0.14202519  0.47071102  0.61190502  1
  F  F17  1  0.85797481  0.52928898  0.61190502  1
  F  F18  1  0.00000000  0.50000000  0.94600665  1
  F  F19  1  0.50000000  0.00000000  0.55399335  1
  F  F20  1  0.00000000  0.50000000  0.05399335  1
  F  F21  1  0.50000000  0.00000000  0.44600665  1
  F  F22  1  0.04531353  0.87853660  0.91655267  1
  F  F23  1  0.95468647  0.12146340  0.91655267  1
  F  F24  1  0.45468647  0.37853660  0.58344733  1
  F  F25  1  0.54531353  0.62146340  0.58344733  1
  F  F26  1  0.95468647  0.12146340  0.08344733  1
  F  F27  1  0.04531353  0.87853660  0.08344733  1
  F  F28  1  0.54531353  0.62146340  0.41655267  1
  F  F29  1  0.45468647  0.37853660  0.41655267  1
  F  F30  1  0.23822738  0.15740028  0.76818468  1
  F  F31  1  0.76177262  0.84259972  0.76818468  1
  F  F32  1  0.26177262  0.65740028  0.73181532  1
  F  F33  1  0.73822738  0.34259972  0.73181532  1
  F  F34  1  0.76177262  0.84259972  0.23181532  1
  F  F35  1  0.23822738  0.15740028  0.23181532  1
  F  F36  1  0.73822738  0.34259972  0.26818468  1
  F  F37  1  0.26177262  0.65740028  0.26818468  1
  F  F38  1  0.35821818  0.89091951  0.03805718  1
  F  F39  1  0.64178182  0.10908049  0.03805718  1
  F  F40  1  0.14178182  0.39091951  0.46194282  1
  F  F41  1  0.85821818  0.60908049  0.46194282  1
  F  F42  1  0.64178182  0.10908049  0.96194282  1
  F  F43  1  0.35821818  0.89091951  0.96194282  1
  F  F44  1  0.85821818  0.60908049  0.53805718  1
  F  F45  1  0.14178182  0.39091951  0.53805718  1
  F  F46  1  0.00000000  0.00000000  0.00000000  1
  F  F47  1  0.50000000  0.50000000  0.50000000  1
  Li  Li48  1  0.56669415  0.88408700  0.77778235  1
  Li  Li49  1  0.43330585  0.11591300  0.77778235  1
  Li  Li50  1  0.93330585  0.38408700  0.72221765  1
  Li  Li51  1  0.06669415  0.61591300  0.72221765  1
  Li  Li52  1  0.43330585  0.11591300  0.22221765  1
  Li  Li53  1  0.56669415  0.88408700  0.22221765  1
  Li  Li54  1  0.06669415  0.61591300  0.27778235  1
  Li  Li55  1  0.93330585  0.38408700  0.27778235  1
  Si  Si56  1  0.41204300  0.61732227  0.80414875  1
  Si  Si57  1  -0.41204300  -0.61732227  0.80414875  1
  Si  Si58  1  0.08795700  1.11732227  -0.30414875  1
  Si  Si59  1  0.91204300  -0.11732227  -0.30414875  1
  Si  Si60  1  -0.41204300  -0.61732227  -0.80414875  1
  Si  Si61  1  0.41204300  0.61732227  -0.80414875  1
  Si  Si62  1  0.91204300  -0.11732227  1.30414875  1
  Si  Si63  1  0.08795700  1.11732227  1.30414875  1
  Si  Si64  1  0.66829521  0.76140435  0.10882873  1
  Si  Si65  1  0.33170479  0.23859565  0.10882873  1
  Si  Si66  1  0.83170479  0.26140435  0.39117127  1
  Si  Si67  1  0.16829521  0.73859565  0.39117127  1
  Si  Si68  1  0.33170479  0.23859565  0.89117127  1
  Si  Si69  1  0.66829521  0.76140435  0.89117127  1
  Si  Si70  1  0.16829521  0.73859565  0.60882873  1
  Si  Si71  1  0.83170479  0.26140435  0.60882873  1
  Te  Te72  1  0.12355959  0.95716263  0.82759330  1
  Te  Te73  1  0.87644041  0.04283737  0.82759330  1
  Te  Te74  1  0.37644041  0.45716263  0.67240670  1
  Te  Te75  1  0.62355959  0.54283737  0.67240670  1
  Te  Te76  1  0.87644041  0.04283737  0.17240670  1
  Te  Te77  1  0.12355959  0.95716263  0.17240670  1
  Te  Te78  1  0.62355959  0.54283737  0.32759330  1
  Te  Te79  1  0.37644041  0.45716263  0.32759330  1
  Te  Te80  1  0.00000000  0.00000000  0.60405129  1
  Te  Te81  1  0.50000000  0.50000000  0.89594871  1
  Te  Te82  1  0.00000000  0.00000000  0.39594871  1
  Te  Te83  1  0.50000000  0.50000000  0.10405129  1
