# generated using pymatgen
data_Li2Si4Te3F12
_symmetry_space_group_name_H-M   'P 1'
_cell_length_a   10.15849646
_cell_length_b   10.15849646
_cell_length_c   12.88914482
_cell_angle_alpha   90.00000000
_cell_angle_beta   90.00000000
_cell_angle_gamma   90.00000000
_symmetry_Int_Tables_number   1
_chemical_formula_structural   Li2Si4Te3F12
_chemical_formula_sum   'Li8 Si16 Te12 F48'
_cell_volume   1330.09594921
_cell_formula_units_Z   4
loop_
 _symmetry_equiv_pos_site_id
 _symmetry_equiv_pos_as_xyz
  1  'x, y, z'
loop_
 _atom_site_type_symbol
 _atom_site_label
 _atom_site_symmetry_multiplicity
 _atom_site_fract_x
 _atom_site_fract_y
 _atom_site_fract_z
 _atom_site_occupancy
  F  F0  1  0.40503181  0.65503181  0.87500000  1
  F  F1  1  0.09496819  0.34496819  0.37500000  1
  F  F2  1  0.59496819  0.15503181  0.12500000  1
  F  F3  1  0.90503181  0.84496819  0.62500000  1
  F  F4  1  0.59496819  0.34496819  0.12500000  1
  F  F5  1  0.90503181  0.65503181  0.62500000  1
  F  F6  1  0.40503181  0.84496819  0.87500000  1
  F  F7  1  0.09496819  0.15503181  0.37500000  1
  F  F8  1  0.90503181  0.15503181  0.37500000  1
  F  F9  1  0.59496819  0.84496819  0.87500000  1
  F  F10  1  0.09496819  0.65503181  0.62500000  1
  F  F11  1  0.40503181  0.34496819  0.12500000  1
  F  F12  1  0.09496819  0.84496819  0.62500000  1
  F  F13  1  0.40503181  0.15503181  0.12500000  1
  F  F14  1  0.90503181  0.34496819  0.37500000  1
  F  F15  1  0.59496819  0.65503181  0.87500000  1
  F  F16  1  0.19904218  0.66114997  0.57550082  1
  F  F17  1  0.30095782  -0.66114997  1.07550082  1
  F  F18  1  -0.41114997  0.94904218  0.82550082  1
  F  F19  1  0.91114997  0.05095782  1.32550082  1
  F  F20  1  0.30095782  0.66114997  -0.07550082  1
  F  F21  1  0.19904218  -0.66114997  -0.57550082  1
  F  F22  1  0.91114997  0.94904218  -0.32550082  1
  F  F23  1  -0.41114997  0.05095782  0.17449918  1
  F  F24  1  -0.19904218  -0.66114997  -0.57550082  1
  F  F25  1  0.69904218  0.66114997  -0.07550082  1
  F  F26  1  1.41114997  0.05095782  0.17449918  1
  F  F27  1  0.08885003  0.94904218  -0.32550082  1
  F  F28  1  0.69904218  -0.66114997  1.07550082  1
  F  F29  1  -0.19904218  0.66114997  0.57550082  1
  F  F30  1  0.08885003  0.05095782  1.32550082  1
  F  F31  1  1.41114997  0.94904218  0.82550082  1
  F  F32  1  0.69904218  1.16114997  1.07550082  1
  F  F33  1  0.80095782  -0.16114997  1.57550082  1
  F  F34  1  0.08885003  1.44904218  1.32550082  1
  F  F35  1  1.41114997  0.55095782  1.82550082  1
  F  F36  1  0.80095782  1.16114997  0.42449918  1
  F  F37  1  0.69904218  -0.16114997  -0.07550082  1
  F  F38  1  1.41114997  1.44904218  0.17449918  1
  F  F39  1  0.08885003  0.55095782  0.67449918  1
  F  F40  1  0.30095782  -0.16114997  -0.07550082  1
  F  F41  1  1.19904218  1.16114997  0.42449918  1
  F  F42  1  1.91114997  0.55095782  0.67449918  1
  F  F43  1  0.58885003  1.44904218  0.17449918  1
  F  F44  1  1.19904218  -0.16114997  1.57550082  1
  F  F45  1  0.30095782  1.16114997  1.07550082  1
  F  F46  1  0.58885003  0.55095782  1.82550082  1
  F  F47  1  1.91114997  1.44904218  1.32550082  1
  Li  Li48  1  0.00000000  0.25000000  0.31362390  1
  Li  Li49  1  0.00000000  0.75000000  0.56362390  1
  Li  Li50  1  0.50000000  0.25000000  0.18637610  1
  Li  Li51  1  0.50000000  0.75000000  0.93637610  1
  Li  Li52  1  0.50000000  0.75000000  0.81362390  1
  Li  Li53  1  0.50000000  0.25000000  0.06362390  1
  Li  Li54  1  0.00000000  0.75000000  0.68637610  1
  Li  Li55  1  0.00000000  0.25000000  0.43637610  1
  Si  Si56  1  0.86016167  0.00000000  0.00000000  1
  Si  Si57  1  0.63983833  0.00000000  0.50000000  1
  Si  Si58  1  0.25000000  0.61016167  0.25000000  1
  Si  Si59  1  0.25000000  0.38983833  0.75000000  1
  Si  Si60  1  0.13983833  0.00000000  0.00000000  1
  Si  Si61  1  0.36016167  0.00000000  0.50000000  1
  Si  Si62  1  0.75000000  0.38983833  0.75000000  1
  Si  Si63  1  0.75000000  0.61016167  0.25000000  1
  Si  Si64  1  0.36016167  0.50000000  0.50000000  1
  Si  Si65  1  0.13983833  0.50000000  0.00000000  1
  Si  Si66  1  0.75000000  0.11016167  0.75000000  1
  Si  Si67  1  0.75000000  0.88983833  0.25000000  1
  Si  Si68  1  0.63983833  0.50000000  0.50000000  1
  Si  Si69  1  0.86016167  0.50000000  0.00000000  1
  Si  Si70  1  0.25000000  0.88983833  0.25000000  1
  Si  Si71  1  0.25000000  0.11016167  0.75000000  1
  Te  Te72  1  0.00000000  0.00000000  0.50000000  1
  Te  Te73  1  0.50000000  0.00000000  0.00000000  1
  Te  Te74  1  0.25000000  0.75000000  0.75000000  1
  Te  Te75  1  0.25000000  0.25000000  0.25000000  1
  Te  Te76  1  0.50000000  0.50000000  0.00000000  1
  Te  Te77  1  0.00000000  0.50000000  0.50000000  1
  Te  Te78  1  0.75000000  0.25000000  0.25000000  1
  Te  Te79  1  0.75000000  0.75000000  0.75000000  1
  Te  Te80  1  0.00000000  0.75000000  0.12500000  1
  Te  Te81  1  0.50000000  0.75000000  0.37500000  1
  Te  Te82  1  0.50000000  0.25000000  0.62500000  1
  Te  Te83  1  0.00000000  0.25000000  0.87500000  1
