# generated using pymatgen
data_LiY2Te4P3Se
_symmetry_space_group_name_H-M   'P 1'
_cell_length_a   5.21036466
_cell_length_b   5.11512362
_cell_length_c   7.40917962
_cell_angle_alpha   94.60942671
_cell_angle_beta   100.03837310
_cell_angle_gamma   108.51423512
_symmetry_Int_Tables_number   1
_chemical_formula_structural   LiY2Te4P3Se
_chemical_formula_sum   'Li1 Y2 Te4 P3 Se1'
_cell_volume   182.42254227
_cell_formula_units_Z   1
loop_
 _symmetry_equiv_pos_site_id
 _symmetry_equiv_pos_as_xyz
  1  'x, y, z'
loop_
 _atom_site_type_symbol
 _atom_site_label
 _atom_site_symmetry_multiplicity
 _atom_site_fract_x
 _atom_site_fract_y
 _atom_site_fract_z
 _atom_site_occupancy
  Se  Se0  1  0.00000000  0.00000000  0.00000000  1
  Te  Te1  1  0.50000000  0.50000000  0.50000000  1
  Te  Te2  1  0.25000000  0.25000000  0.25000000  1
  Te  Te3  1  0.75000000  0.25000000  0.00000000  1
  Te  Te4  1  0.25000000  0.75000000  0.50000000  1
  Y  Y5  1  0.66748993  0.61865844  0.83447345  1
  Y  Y6  1  0.75553798  0.69149395  0.64891919  1
  P  P7  1  0.48751422  0.53727703  0.41907231  1
  P  P8  1  0.91628523  0.20499272  0.67627391  1
  P  P9  1  0.01358666  0.88451151  0.88292087  1
  Li  Li10  1  0.69224827  0.70091005  0.01560050  1
