# generated using pymatgen
data_LiF
_symmetry_space_group_name_H-M   'P 1'
_cell_length_a   11.68567513
_cell_length_b   11.68567513
_cell_length_c   6.49632540
_cell_angle_alpha   90.00000000
_cell_angle_beta   90.00000000
_cell_angle_gamma   120.00000000
_symmetry_Int_Tables_number   1
_chemical_formula_structural   LiF
_chemical_formula_sum   'Li32 F32'
_cell_volume   768.25610276
_cell_formula_units_Z   32
loop_
 _symmetry_equiv_pos_site_id
 _symmetry_equiv_pos_as_xyz
  1  'x, y, z'
loop_
 _atom_site_type_symbol
 _atom_site_label
 _atom_site_symmetry_multiplicity
 _atom_site_fract_x
 _atom_site_fract_y
 _atom_site_fract_z
 _atom_site_occupancy
  F  F0  1  0.00000000  0.00000000  0.25000000  1
  F  F1  1  0.00000000  0.00000000  0.75000000  1
  F  F2  1  0.05731516  0.19025978  0.81450869  1
  F  F3  1  -0.19025978  -0.13294462  0.81450869  1
  F  F4  1  0.13294462  -0.05731516  0.81450869  1
  F  F5  1  -0.05731516  -0.19025978  1.31450869  1
  F  F6  1  0.19025978  0.13294462  1.31450869  1
  F  F7  1  -0.13294462  0.05731516  1.31450869  1
  F  F8  1  -0.05731516  -0.19025978  -0.81450869  1
  F  F9  1  0.19025978  0.13294462  -0.81450869  1
  F  F10  1  -0.13294462  0.05731516  -0.81450869  1
  F  F11  1  0.05731516  0.19025978  -0.31450869  1
  F  F12  1  -0.19025978  -0.13294462  -0.31450869  1
  F  F13  1  0.13294462  -0.05731516  -0.31450869  1
  F  F14  1  0.00000000  0.00000000  0.94761184  1
  F  F15  1  0.00000000  0.00000000  0.44761184  1
  F  F16  1  0.00000000  0.00000000  0.05238816  1
  F  F17  1  0.00000000  0.00000000  0.55238816  1
  F  F18  1  0.97106171  0.25538459  0.05204512  1
  F  F19  1  0.74461541  0.71567712  0.05204512  1
  F  F20  1  0.28432288  0.02893829  0.05204512  1
  F  F21  1  0.02893829  0.74461541  0.55204512  1
  F  F22  1  0.25538459  0.28432288  0.55204512  1
  F  F23  1  0.71567712  0.97106171  0.55204512  1
  F  F24  1  0.02893829  0.74461541  0.94795488  1
  F  F25  1  0.25538459  0.28432288  0.94795488  1
  F  F26  1  0.71567712  0.97106171  0.94795488  1
  F  F27  1  0.97106171  0.25538459  0.44795488  1
  F  F28  1  0.74461541  0.71567712  0.44795488  1
  F  F29  1  0.28432288  0.02893829  0.44795488  1
  F  F30  1  0.33333333  0.66666667  0.25000000  1
  F  F31  1  0.66666667  0.33333333  0.75000000  1
  Li  Li32  1  0.93932845  0.84462920  0.58677672  1
  Li  Li33  1  0.15537080  0.09469925  0.58677672  1
  Li  Li34  1  0.90530075  0.06067155  0.58677672  1
  Li  Li35  1  0.06067155  0.15537080  0.08677672  1
  Li  Li36  1  0.84462920  0.90530075  0.08677672  1
  Li  Li37  1  0.09469925  0.93932845  0.08677672  1
  Li  Li38  1  0.06067155  0.15537080  0.41322328  1
  Li  Li39  1  0.84462920  0.90530075  0.41322328  1
  Li  Li40  1  0.09469925  0.93932845  0.41322328  1
  Li  Li41  1  0.93932845  0.84462920  0.91322328  1
  Li  Li42  1  0.15537080  0.09469925  0.91322328  1
  Li  Li43  1  0.90530075  0.06067155  0.91322328  1
  Li  Li44  1  0.78940936  0.14965031  0.37942005  1
  Li  Li45  1  0.85034969  0.63975905  0.37942005  1
  Li  Li46  1  0.36024095  0.21059064  0.37942005  1
  Li  Li47  1  0.21059064  0.85034969  0.87942005  1
  Li  Li48  1  0.14965031  0.36024095  0.87942005  1
  Li  Li49  1  0.63975905  0.78940936  0.87942005  1
  Li  Li50  1  0.21059064  0.85034969  0.62057995  1
  Li  Li51  1  0.14965031  0.36024095  0.62057995  1
  Li  Li52  1  0.63975905  0.78940936  0.62057995  1
  Li  Li53  1  0.78940936  0.14965031  0.12057995  1
  Li  Li54  1  0.85034969  0.63975905  0.12057995  1
  Li  Li55  1  0.36024095  0.21059064  0.12057995  1
  Li  Li56  1  0.50000000  0.00000000  -0.00000000  1
  Li  Li57  1  0.00000000  0.50000000  -0.00000000  1
  Li  Li58  1  0.50000000  0.50000000  -0.00000000  1
  Li  Li59  1  0.50000000  0.00000000  0.50000000  1
  Li  Li60  1  0.00000000  0.50000000  0.50000000  1
  Li  Li61  1  0.50000000  0.50000000  0.50000000  1
  Li  Li62  1  0.66666667  0.33333333  0.25000000  1
  Li  Li63  1  0.33333333  0.66666667  0.75000000  1
