# generated using pymatgen
data_LiF
_symmetry_space_group_name_H-M   'P 1'
_cell_length_a   11.85451609
_cell_length_b   8.09508503
_cell_length_c   6.42301455
_cell_angle_alpha   90.00000000
_cell_angle_beta   90.00000000
_cell_angle_gamma   90.00000000
_symmetry_Int_Tables_number   1
_chemical_formula_structural   LiF
_chemical_formula_sum   'Li24 F24'
_cell_volume   616.37377380
_cell_formula_units_Z   24
loop_
 _symmetry_equiv_pos_site_id
 _symmetry_equiv_pos_as_xyz
  1  'x, y, z'
loop_
 _atom_site_type_symbol
 _atom_site_label
 _atom_site_symmetry_multiplicity
 _atom_site_fract_x
 _atom_site_fract_y
 _atom_site_fract_z
 _atom_site_occupancy
  F  F0  1  0.30555938  0.05082325  0.99982692  1
  F  F1  1  0.19444062  0.94917675  0.49982692  1
  F  F2  1  0.69444062  0.55082325  0.00017308  1
  F  F3  1  0.80555938  0.44917675  0.50017308  1
  F  F4  1  0.69444062  0.94917675  0.00017308  1
  F  F5  1  0.80555938  0.05082325  0.50017308  1
  F  F6  1  0.30555938  0.44917675  0.99982692  1
  F  F7  1  0.19444062  0.55082325  0.49982692  1
  F  F8  1  0.40423109  0.51110936  0.37120029  1
  F  F9  1  0.09576891  0.48889064  0.87120029  1
  F  F10  1  0.59576891  0.01110936  0.62879971  1
  F  F11  1  0.90423109  0.98889064  0.12879971  1
  F  F12  1  0.59576891  0.48889064  0.62879971  1
  F  F13  1  0.90423109  0.51110936  0.12879971  1
  F  F14  1  0.40423109  0.98889064  0.37120029  1
  F  F15  1  0.09576891  0.01110936  0.87120029  1
  F  F16  1  0.32985107  0.98133170  0.55280912  1
  F  F17  1  0.17014893  0.01866830  0.05280912  1
  F  F18  1  0.67014893  0.48133170  0.44719088  1
  F  F19  1  0.82985107  0.51866830  0.94719088  1
  F  F20  1  0.67014893  0.01866830  0.44719088  1
  F  F21  1  0.82985107  0.98133170  0.94719088  1
  F  F22  1  0.32985107  0.51866830  0.55280912  1
  F  F23  1  0.17014893  0.48133170  0.05280912  1
  Li  Li24  1  0.90243609  0.08364458  0.50120178  1
  Li  Li25  1  -0.40243609  -0.08364458  1.00120178  1
  Li  Li26  1  -0.90243609  0.58364458  -0.50120178  1
  Li  Li27  1  1.40243609  0.41635542  -0.00120178  1
  Li  Li28  1  -0.90243609  -0.08364458  -0.50120178  1
  Li  Li29  1  1.40243609  0.08364458  -0.00120178  1
  Li  Li30  1  0.90243609  0.41635542  0.50120178  1
  Li  Li31  1  -0.40243609  0.58364458  1.00120178  1
  Li  Li32  1  0.48250546  0.33795447  0.85577516  1
  Li  Li33  1  0.01749454  0.66204553  0.35577516  1
  Li  Li34  1  0.51749454  0.83795447  0.14422484  1
  Li  Li35  1  0.98250546  0.16204553  0.64422484  1
  Li  Li36  1  0.51749454  0.66204553  0.14422484  1
  Li  Li37  1  0.98250546  0.33795447  0.64422484  1
  Li  Li38  1  0.48250546  0.16204553  0.85577516  1
  Li  Li39  1  0.01749454  0.83795447  0.35577516  1
  Li  Li40  1  0.00000000  0.00000000  0.50000000  1
  Li  Li41  1  0.50000000  0.00000000  0.00000000  1
  Li  Li42  1  0.00000000  0.50000000  0.50000000  1
  Li  Li43  1  0.50000000  0.50000000  -0.00000000  1
  Li  Li44  1  0.67483926  0.25000000  0.81283312  1
  Li  Li45  1  0.82516074  0.75000000  0.31283312  1
  Li  Li46  1  0.32516074  0.75000000  0.18716688  1
  Li  Li47  1  0.17483926  0.25000000  0.68716688  1
