# generated using pymatgen
data_Li2YAs4P3
_symmetry_space_group_name_H-M   'P 1'
_cell_length_a   5.70730488
_cell_length_b   5.60890455
_cell_length_c   7.39538689
_cell_angle_alpha   94.42614275
_cell_angle_beta   99.63921872
_cell_angle_gamma   107.77805627
_symmetry_Int_Tables_number   1
_chemical_formula_structural   Li2YAs4P3
_chemical_formula_sum   'Li2 Y1 As4 P3'
_cell_volume   220.16596307
_cell_formula_units_Z   1
loop_
 _symmetry_equiv_pos_site_id
 _symmetry_equiv_pos_as_xyz
  1  'x, y, z'
loop_
 _atom_site_type_symbol
 _atom_site_label
 _atom_site_symmetry_multiplicity
 _atom_site_fract_x
 _atom_site_fract_y
 _atom_site_fract_z
 _atom_site_occupancy
  P  P0  1  0.12500000  0.00000000  0.25000000  1
  P  P1  1  0.00000000  0.00000000  0.00000000  1
  P  P2  1  0.37500000  0.00000000  0.25000000  1
  As  As3  1  0.25000000  0.25000000  0.25000000  1
  As  As4  1  0.00000000  0.25000000  0.12500000  1
  As  As5  1  0.58230418  0.37079170  0.47303211  1
  As  As6  1  0.93119571  0.69815901  0.42708584  1
  Li  Li7  1  0.03148541  0.79238317  0.56313338  1
  Li  Li8  1  0.18744001  0.49650505  0.99359516  1
  Y  Y9  1  0.76303958  0.74300297  0.12142255  1
