# generated using pymatgen
data_LiF
_symmetry_space_group_name_H-M   'P 1'
_cell_length_a   7.41947412
_cell_length_b   7.41947412
_cell_length_c   9.14851001
_cell_angle_alpha   90.00000000
_cell_angle_beta   90.00000000
_cell_angle_gamma   120.00000000
_symmetry_Int_Tables_number   1
_chemical_formula_structural   LiF
_chemical_formula_sum   'Li21 F21'
_cell_volume   436.14133450
_cell_formula_units_Z   21
loop_
 _symmetry_equiv_pos_site_id
 _symmetry_equiv_pos_as_xyz
  1  'x, y, z'
loop_
 _atom_site_type_symbol
 _atom_site_label
 _atom_site_symmetry_multiplicity
 _atom_site_fract_x
 _atom_site_fract_y
 _atom_site_fract_z
 _atom_site_occupancy
  F  F0  1  0.66666667  0.33333333  0.00000000  1
  F  F1  1  0.09981073  0.60546259  0.84915395  1
  F  F2  1  0.39453741  0.49434813  0.84915395  1
  F  F3  1  0.50565187  0.90018927  0.84915395  1
  F  F4  1  0.39453741  0.90018927  0.15084605  1
  F  F5  1  0.50565187  0.60546259  0.15084605  1
  F  F6  1  0.09981073  0.49434813  0.15084605  1
  F  F7  1  0.64266131  0.59179949  0.00523089  1
  F  F8  1  0.40820051  0.05086182  0.00523089  1
  F  F9  1  0.94913818  0.35733869  0.00523089  1
  F  F10  1  0.40820051  0.35733869  0.99476911  1
  F  F11  1  0.94913818  0.59179949  0.99476911  1
  F  F12  1  0.64266131  0.05086182  0.99476911  1
  F  F13  1  0.13366837  0.86633163  0.00000000  1
  F  F14  1  0.13366837  0.26733674  0.00000000  1
  F  F15  1  0.73266326  0.86633163  0.00000000  1
  F  F16  1  0.96055735  0.03944265  0.50000000  1
  F  F17  1  0.96055735  0.92111469  0.50000000  1
  F  F18  1  0.07888531  0.03944265  0.50000000  1
  F  F19  1  0.33333333  0.66666667  0.07471570  1
  F  F20  1  0.33333333  0.66666667  0.92528430  1
  Li  Li21  1  0.66666667  0.33333333  0.64655470  1
  Li  Li22  1  0.66666667  0.33333333  0.35344530  1
  Li  Li23  1  0.62839216  0.78878071  0.92677947  1
  Li  Li24  1  -0.78878071  -0.16038854  0.92677947  1
  Li  Li25  1  0.16038854  -0.62839216  0.92677947  1
  Li  Li26  1  -0.78878071  -0.62839216  -0.92677947  1
  Li  Li27  1  0.16038854  0.78878071  -0.92677947  1
  Li  Li28  1  0.62839216  -0.16038854  -0.92677947  1
  Li  Li29  1  0.80222365  0.91061899  0.25559861  1
  Li  Li30  1  0.08938101  0.89160465  0.25559861  1
  Li  Li31  1  0.10839535  0.19777635  0.25559861  1
  Li  Li32  1  0.08938101  0.19777635  0.74440139  1
  Li  Li33  1  0.10839535  0.91061899  0.74440139  1
  Li  Li34  1  0.80222365  0.89160465  0.74440139  1
  Li  Li35  1  0.00000000  0.00000000  0.27964716  1
  Li  Li36  1  0.00000000  0.00000000  0.72035284  1
  Li  Li37  1  0.40136376  0.59863624  0.50000000  1
  Li  Li38  1  0.40136376  0.80272752  0.50000000  1
  Li  Li39  1  0.19727248  0.59863624  0.50000000  1
  Li  Li40  1  0.66666667  0.33333333  0.20085539  1
  Li  Li41  1  0.66666667  0.33333333  0.79914461  1
