# generated using pymatgen
data_Li4TeF2
_symmetry_space_group_name_H-M   'P 1'
_cell_length_a   14.11528483
_cell_length_b   14.11528483
_cell_length_c   17.01087793
_cell_angle_alpha   90.00000000
_cell_angle_beta   90.00000000
_cell_angle_gamma   120.00000000
_symmetry_Int_Tables_number   1
_chemical_formula_structural   Li4TeF2
_chemical_formula_sum   'Li96 Te24 F48'
_cell_volume   2935.19292563
_cell_formula_units_Z   24
loop_
 _symmetry_equiv_pos_site_id
 _symmetry_equiv_pos_as_xyz
  1  'x, y, z'
loop_
 _atom_site_type_symbol
 _atom_site_label
 _atom_site_symmetry_multiplicity
 _atom_site_fract_x
 _atom_site_fract_y
 _atom_site_fract_z
 _atom_site_occupancy
  F  F0  1  0.56768149  0.14885467  0.06341663  1
  F  F1  1  -0.14885467  0.41882682  0.06341663  1
  F  F2  1  -0.41882682  -0.56768149  0.06341663  1
  F  F3  1  0.14885467  0.56768149  0.43658337  1
  F  F4  1  0.41882682  -0.14885467  0.43658337  1
  F  F5  1  -0.56768149  -0.41882682  0.43658337  1
  F  F6  1  -0.56768149  -0.14885467  -0.06341663  1
  F  F7  1  0.14885467  -0.41882682  -0.06341663  1
  F  F8  1  0.41882682  0.56768149  -0.06341663  1
  F  F9  1  -0.14885467  -0.56768149  0.56341663  1
  F  F10  1  -0.41882682  0.14885467  0.56341663  1
  F  F11  1  0.56768149  0.41882682  0.56341663  1
  F  F12  1  1.23434816  0.48218800  0.39674996  1
  F  F13  1  0.51781200  0.75216016  0.39674996  1
  F  F14  1  0.24783984  -0.23434816  0.39674996  1
  F  F15  1  0.81552133  0.90101482  0.76991670  1
  F  F16  1  1.08549349  0.18447867  0.76991670  1
  F  F17  1  0.09898518  -0.08549349  0.76991670  1
  F  F18  1  0.09898518  0.18447867  0.26991670  1
  F  F19  1  0.81552133  -0.08549349  0.26991670  1
  F  F20  1  1.08549349  0.90101482  0.26991670  1
  F  F21  1  0.51781200  -0.23434816  0.89674996  1
  F  F22  1  0.24783984  0.48218800  0.89674996  1
  F  F23  1  1.23434816  0.75216016  0.89674996  1
  F  F24  1  0.90101482  0.81552133  0.73008330  1
  F  F25  1  0.18447867  1.08549349  0.73008330  1
  F  F26  1  -0.08549349  0.09898518  0.73008330  1
  F  F27  1  0.48218800  1.23434816  1.10325004  1
  F  F28  1  0.75216016  0.51781200  1.10325004  1
  F  F29  1  -0.23434816  0.24783984  1.10325004  1
  F  F30  1  -0.23434816  0.51781200  0.60325004  1
  F  F31  1  0.48218800  0.24783984  0.60325004  1
  F  F32  1  0.75216016  1.23434816  0.60325004  1
  F  F33  1  0.18447867  0.09898518  1.23008330  1
  F  F34  1  -0.08549349  0.81552133  1.23008330  1
  F  F35  1  0.90101482  1.08549349  1.23008330  1
  F  F36  1  0.00000000  0.00000000  0.42334973  1
  F  F37  1  0.00000000  0.00000000  0.07665027  1
  F  F38  1  0.00000000  0.00000000  0.57665027  1
  F  F39  1  0.00000000  0.00000000  0.92334973  1
  F  F40  1  0.66666667  0.33333333  0.75668307  1
  F  F41  1  0.66666667  0.33333333  0.40998360  1
  F  F42  1  0.66666667  0.33333333  0.90998360  1
  F  F43  1  0.66666667  0.33333333  0.25668307  1
  F  F44  1  0.33333333  0.66666667  0.09001640  1
  F  F45  1  0.33333333  0.66666667  0.74331693  1
  F  F46  1  0.33333333  0.66666667  0.24331693  1
  F  F47  1  0.33333333  0.66666667  0.59001640  1
  Li  Li48  1  0.00792109  0.30537918  0.81401303  1
  Li  Li49  1  0.69462082  0.70254191  0.81401303  1
  Li  Li50  1  0.29745809  0.99207891  0.81401303  1
  Li  Li51  1  0.30537918  0.00792109  0.68598697  1
  Li  Li52  1  0.70254191  0.69462082  0.68598697  1
  Li  Li53  1  0.99207891  0.29745809  0.68598697  1
  Li  Li54  1  0.99207891  0.69462082  0.18598697  1
  Li  Li55  1  0.30537918  0.29745809  0.18598697  1
  Li  Li56  1  0.70254191  0.00792109  0.18598697  1
  Li  Li57  1  0.69462082  0.99207891  0.31401303  1
  Li  Li58  1  0.29745809  0.30537918  0.31401303  1
  Li  Li59  1  0.00792109  0.70254191  0.31401303  1
  Li  Li60  1  0.67458775  0.63871251  0.14734637  1
  Li  Li61  1  0.36128749  0.03587524  0.14734637  1
  Li  Li62  1  0.96412476  0.32541225  0.14734637  1
  Li  Li63  1  0.97204585  0.34125442  0.01932030  1
  Li  Li64  1  0.36920857  0.02795415  0.01932030  1
  Li  Li65  1  0.65874558  0.63079143  0.01932030  1
  Li  Li66  1  0.65874558  0.02795415  0.51932030  1
  Li  Li67  1  0.97204585  0.63079143  0.51932030  1
  Li  Li68  1  0.36920857  0.34125442  0.51932030  1
  Li  Li69  1  0.36128749  0.32541225  0.64734637  1
  Li  Li70  1  0.96412476  0.63871251  0.64734637  1
  Li  Li71  1  0.67458775  0.03587524  0.64734637  1
  Li  Li72  1  0.34125442  0.97204585  0.48067970  1
  Li  Li73  1  0.02795415  0.36920857  0.48067970  1
  Li  Li74  1  0.63079143  0.65874558  0.48067970  1
  Li  Li75  1  0.63871251  0.67458775  0.35265363  1
  Li  Li76  1  0.03587524  0.36128749  0.35265363  1
  Li  Li77  1  0.32541225  0.96412476  0.35265363  1
  Li  Li78  1  0.32541225  0.36128749  0.85265363  1
  Li  Li79  1  0.63871251  0.96412476  0.85265363  1
  Li  Li80  1  0.03587524  0.67458775  0.85265363  1
  Li  Li81  1  0.02795415  0.65874558  0.98067970  1
  Li  Li82  1  0.63079143  0.97204585  0.98067970  1
  Li  Li83  1  0.34125442  0.36920857  0.98067970  1
  Li  Li84  1  0.00000000  0.00000000  0.00000000  1
  Li  Li85  1  0.00000000  0.00000000  0.50000000  1
  Li  Li86  1  0.66666667  0.33333333  0.33333333  1
  Li  Li87  1  0.66666667  0.33333333  0.83333333  1
  Li  Li88  1  0.33333333  0.66666667  0.66666667  1
  Li  Li89  1  0.33333333  0.66666667  0.16666667  1
  Li  Li90  1  0.90949467  0.36938930  0.17407937  1
  Li  Li91  1  0.63061070  0.54010537  0.17407937  1
  Li  Li92  1  0.45989463  0.09050533  0.17407937  1
  Li  Li93  1  0.36938930  0.90949467  0.32592063  1
  Li  Li94  1  0.54010537  0.63061070  0.32592063  1
  Li  Li95  1  0.09050533  0.45989463  0.32592063  1
  Li  Li96  1  0.09050533  0.63061070  0.82592063  1
  Li  Li97  1  0.36938930  0.45989463  0.82592063  1
  Li  Li98  1  0.54010537  0.90949467  0.82592063  1
  Li  Li99  1  0.63061070  0.09050533  0.67407937  1
  Li  Li100  1  0.45989463  0.36938930  0.67407937  1
  Li  Li101  1  0.90949467  0.54010537  0.67407937  1
  Li  Li102  1  0.57616134  0.70272263  0.50741271  1
  Li  Li103  1  0.29727737  0.87343870  0.50741271  1
  Li  Li104  1  0.12656130  0.42383866  0.50741271  1
  Li  Li105  1  0.03605597  0.24282800  0.65925396  1
  Li  Li106  1  0.20677204  0.96394403  0.65925396  1
  Li  Li107  1  0.75717200  0.79322796  0.65925396  1
  Li  Li108  1  0.75717200  0.96394403  0.15925396  1
  Li  Li109  1  0.03605597  0.79322796  0.15925396  1
  Li  Li110  1  0.20677204  0.24282800  0.15925396  1
  Li  Li111  1  0.29727737  0.42383866  0.00741271  1
  Li  Li112  1  0.12656130  0.70272263  0.00741271  1
  Li  Li113  1  0.57616134  0.87343870  0.00741271  1
  Li  Li114  1  0.24282800  0.03605597  0.84074604  1
  Li  Li115  1  0.96394403  0.20677204  0.84074604  1
  Li  Li116  1  0.79322796  0.75717200  0.84074604  1
  Li  Li117  1  0.70272263  0.57616134  0.99258729  1
  Li  Li118  1  0.87343870  0.29727737  0.99258729  1
  Li  Li119  1  0.42383866  0.12656130  0.99258729  1
  Li  Li120  1  0.42383866  0.29727737  0.49258729  1
  Li  Li121  1  0.70272263  0.12656130  0.49258729  1
  Li  Li122  1  0.87343870  0.57616134  0.49258729  1
  Li  Li123  1  0.96394403  0.75717200  0.34074604  1
  Li  Li124  1  0.79322796  0.03605597  0.34074604  1
  Li  Li125  1  0.24282800  0.20677204  0.34074604  1
  Li  Li126  1  0.80432905  0.00000000  0.25000000  1
  Li  Li127  1  0.00000000  0.80432905  0.25000000  1
  Li  Li128  1  0.19567095  0.19567095  0.25000000  1
  Li  Li129  1  0.19567095  0.00000000  0.75000000  1
  Li  Li130  1  0.00000000  0.19567095  0.75000000  1
  Li  Li131  1  0.80432905  0.80432905  0.75000000  1
  Li  Li132  1  0.47099572  0.33333333  0.58333333  1
  Li  Li133  1  0.66666667  0.13766238  0.58333333  1
  Li  Li134  1  0.86233762  0.52900428  0.58333333  1
  Li  Li135  1  0.86233762  0.33333333  0.08333333  1
  Li  Li136  1  0.66666667  0.52900428  0.08333333  1
  Li  Li137  1  0.47099572  0.13766238  0.08333333  1
  Li  Li138  1  0.13766238  0.66666667  0.91666667  1
  Li  Li139  1  0.33333333  0.47099572  0.91666667  1
  Li  Li140  1  0.52900428  0.86233762  0.91666667  1
  Li  Li141  1  0.52900428  0.66666667  0.41666667  1
  Li  Li142  1  0.33333333  0.86233762  0.41666667  1
  Li  Li143  1  0.13766238  0.47099572  0.41666667  1
  Te  Te144  1  0.00000000  0.00000000  0.25000000  1
  Te  Te145  1  0.00000000  0.00000000  0.75000000  1
  Te  Te146  1  0.66666667  0.33333333  0.58333333  1
  Te  Te147  1  0.66666667  0.33333333  0.08333333  1
  Te  Te148  1  0.33333333  0.66666667  0.91666667  1
  Te  Te149  1  0.33333333  0.66666667  0.41666667  1
  Te  Te150  1  0.50000000  0.00000000  0.00000000  1
  Te  Te151  1  0.00000000  0.50000000  0.00000000  1
  Te  Te152  1  0.50000000  0.50000000  0.00000000  1
  Te  Te153  1  0.00000000  0.50000000  0.50000000  1
  Te  Te154  1  0.50000000  0.00000000  0.50000000  1
  Te  Te155  1  0.50000000  0.50000000  0.50000000  1
  Te  Te156  1  0.16666667  0.33333333  0.33333333  1
  Te  Te157  1  0.66666667  0.83333333  0.33333333  1
  Te  Te158  1  0.16666667  0.83333333  0.33333333  1
  Te  Te159  1  0.66666667  0.83333333  0.83333333  1
  Te  Te160  1  0.16666667  0.33333333  0.83333333  1
  Te  Te161  1  0.16666667  0.83333333  0.83333333  1
  Te  Te162  1  0.83333333  0.66666667  0.66666667  1
  Te  Te163  1  0.33333333  0.16666667  0.66666667  1
  Te  Te164  1  0.83333333  0.16666667  0.66666667  1
  Te  Te165  1  0.33333333  0.16666667  0.16666667  1
  Te  Te166  1  0.83333333  0.66666667  0.16666667  1
  Te  Te167  1  0.83333333  0.16666667  0.16666667  1
