# generated using pymatgen
data_Li2YTe4AsP3
_symmetry_space_group_name_H-M   'P 1'
_cell_length_a   5.53762823
_cell_length_b   5.65581437
_cell_length_c   7.38681227
_cell_angle_alpha   95.14077969
_cell_angle_beta   100.46250171
_cell_angle_gamma   107.08609459
_symmetry_Int_Tables_number   1
_chemical_formula_structural   Li2YTe4AsP3
_chemical_formula_sum   'Li2 Y1 Te4 As1 P3'
_cell_volume   214.93608725
_cell_formula_units_Z   1
loop_
 _symmetry_equiv_pos_site_id
 _symmetry_equiv_pos_as_xyz
  1  'x, y, z'
loop_
 _atom_site_type_symbol
 _atom_site_label
 _atom_site_symmetry_multiplicity
 _atom_site_fract_x
 _atom_site_fract_y
 _atom_site_fract_z
 _atom_site_occupancy
  Te  Te0  1  0.00000000  0.00000000  0.00000000  1
  Te  Te1  1  0.50000000  0.50000000  0.50000000  1
  Te  Te2  1  0.50000000  0.50000000  0.00000000  1
  Te  Te3  1  0.50000000  0.00000000  0.50000000  1
  P  P4  1  0.00000000  0.50000000  0.50000000  1
  P  P5  1  0.99844939  0.85578310  0.47417721  1
  P  P6  1  0.31233650  0.13503188  0.22174080  1
  As  As7  1  0.17996772  0.05352335  0.26031571  1
  Li  Li8  1  0.62699480  0.67115439  0.43366054  1
  Li  Li9  1  0.19397977  0.98963494  0.33141236  1
  Y  Y10  1  0.14389786  0.33138558  0.26175973  1
