# generated using pymatgen
data_Li2Si4Te3F12
_symmetry_space_group_name_H-M   'P 1'
_cell_length_a   14.39986436
_cell_length_b   9.95837215
_cell_length_c   10.38754745
_cell_angle_alpha   90.00000000
_cell_angle_beta   90.00000000
_cell_angle_gamma   90.00000000
_symmetry_Int_Tables_number   1
_chemical_formula_structural   Li2Si4Te3F12
_chemical_formula_sum   'Li8 Si16 Te12 F48'
_cell_volume   1489.56607990
_cell_formula_units_Z   4
loop_
 _symmetry_equiv_pos_site_id
 _symmetry_equiv_pos_as_xyz
  1  'x, y, z'
loop_
 _atom_site_type_symbol
 _atom_site_label
 _atom_site_symmetry_multiplicity
 _atom_site_fract_x
 _atom_site_fract_y
 _atom_site_fract_z
 _atom_site_occupancy
  F  F0  1  0.00000000  0.00000000  0.00000000  1
  F  F1  1  0.50000000  0.50000000  -0.00000000  1
  F  F2  1  0.45928814  0.16554845  -0.00000000  1
  F  F3  1  0.54071186  0.83445155  -0.00000000  1
  F  F4  1  0.04071186  0.66554845  0.00000000  1
  F  F5  1  0.95928814  0.33445155  0.00000000  1
  F  F6  1  0.00000000  0.50000000  0.00000000  1
  F  F7  1  0.50000000  -0.00000000  0.00000000  1
  F  F8  1  0.93183334  0.46077773  0.64104956  1
  F  F9  1  0.06816666  0.53922227  0.64104956  1
  F  F10  1  0.56816666  0.96077773  0.35895044  1
  F  F11  1  0.43183334  0.03922227  0.35895044  1
  F  F12  1  0.06816666  0.53922227  0.35895044  1
  F  F13  1  0.93183334  0.46077773  0.35895044  1
  F  F14  1  0.43183334  0.03922227  0.64104956  1
  F  F15  1  0.56816666  0.96077773  0.64104956  1
  F  F16  1  0.07869477  0.42265541  0.94810320  1
  F  F17  1  0.92130523  0.57734459  0.94810320  1
  F  F18  1  0.42130523  0.92265541  0.05189680  1
  F  F19  1  0.57869477  0.07734459  0.05189680  1
  F  F20  1  0.92130523  0.57734459  0.05189680  1
  F  F21  1  0.07869477  0.42265541  0.05189680  1
  F  F22  1  0.57869477  0.07734459  0.94810320  1
  F  F23  1  0.42130523  0.92265541  0.94810320  1
  F  F24  1  0.93203983  0.25918025  0.81924891  1
  F  F25  1  0.06796017  0.74081975  0.81924891  1
  F  F26  1  0.56796017  0.75918025  0.18075109  1
  F  F27  1  0.43203983  0.24081975  0.18075109  1
  F  F28  1  0.06796017  0.74081975  0.18075109  1
  F  F29  1  0.93203983  0.25918025  0.18075109  1
  F  F30  1  0.43203983  0.24081975  0.81924891  1
  F  F31  1  0.56796017  0.75918025  0.81924891  1
  F  F32  1  0.32139158  0.58004973  0.44848330  1
  F  F33  1  0.67860842  0.41995027  0.44848330  1
  F  F34  1  0.17860842  0.08004973  0.55151670  1
  F  F35  1  0.82139158  0.91995027  0.55151670  1
  F  F36  1  0.67860842  0.41995027  0.55151670  1
  F  F37  1  0.32139158  0.58004973  0.55151670  1
  F  F38  1  0.82139158  0.91995027  0.44848330  1
  F  F39  1  0.17860842  0.08004973  0.44848330  1
  F  F40  1  0.00000000  0.50000000  0.34150095  1
  F  F41  1  0.50000000  -0.00000000  0.65849905  1
  F  F42  1  0.00000000  0.50000000  0.65849905  1
  F  F43  1  0.50000000  -0.00000000  0.34150095  1
  F  F44  1  0.00000000  0.00000000  0.94116054  1
  F  F45  1  0.50000000  0.50000000  0.05883946  1
  F  F46  1  0.00000000  0.00000000  0.05883946  1
  F  F47  1  0.50000000  0.50000000  0.94116054  1
  Li  Li48  1  0.90329388  0.33428446  0.77802254  1
  Li  Li49  1  0.09670612  0.66571554  0.77802254  1
  Li  Li50  1  0.59670612  0.83428446  0.22197746  1
  Li  Li51  1  0.40329388  0.16571554  0.22197746  1
  Li  Li52  1  0.09670612  0.66571554  0.22197746  1
  Li  Li53  1  0.90329388  0.33428446  0.22197746  1
  Li  Li54  1  0.40329388  0.16571554  0.77802254  1
  Li  Li55  1  0.59670612  0.83428446  0.77802254  1
  Si  Si56  1  0.44595413  0.35589460  0.65165420  1
  Si  Si57  1  -0.44595413  -0.35589460  0.65165420  1
  Si  Si58  1  0.05404587  0.85589460  -0.65165420  1
  Si  Si59  1  0.94595413  0.14410540  -0.65165420  1
  Si  Si60  1  -0.44595413  -0.35589460  -0.65165420  1
  Si  Si61  1  0.44595413  0.35589460  -0.65165420  1
  Si  Si62  1  0.94595413  0.14410540  0.65165420  1
  Si  Si63  1  0.05404587  0.85589460  0.65165420  1
  Si  Si64  1  0.14520771  0.70651543  0.11229744  1
  Si  Si65  1  0.85479229  0.29348457  0.11229744  1
  Si  Si66  1  0.35479229  0.20651543  0.88770256  1
  Si  Si67  1  0.64520771  0.79348457  0.88770256  1
  Si  Si68  1  0.85479229  0.29348457  0.88770256  1
  Si  Si69  1  0.14520771  0.70651543  0.88770256  1
  Si  Si70  1  0.64520771  0.79348457  0.11229744  1
  Si  Si71  1  0.35479229  0.20651543  0.11229744  1
  Te  Te72  1  0.41935981  0.66070111  0.00000000  1
  Te  Te73  1  0.58064019  0.33929889  0.00000000  1
  Te  Te74  1  0.08064019  0.16070111  -0.00000000  1
  Te  Te75  1  0.91935981  0.83929889  0.00000000  1
  Te  Te76  1  0.81678017  0.29910514  0.64974980  1
  Te  Te77  1  0.18321983  0.70089486  0.64974980  1
  Te  Te78  1  0.68321983  0.79910514  0.35025020  1
  Te  Te79  1  0.31678017  0.20089486  0.35025020  1
  Te  Te80  1  0.18321983  0.70089486  0.35025020  1
  Te  Te81  1  0.81678017  0.29910514  0.35025020  1
  Te  Te82  1  0.31678017  0.20089486  0.64974980  1
  Te  Te83  1  0.68321983  0.79910514  0.64974980  1
