# generated using pymatgen
data_LiF
_symmetry_space_group_name_H-M   'P 1'
_cell_length_a   11.02554432
_cell_length_b   10.17152747
_cell_length_c   8.51707318
_cell_angle_alpha   90.00000000
_cell_angle_beta   90.00000000
_cell_angle_gamma   90.00000000
_symmetry_Int_Tables_number   1
_chemical_formula_structural   LiF
_chemical_formula_sum   'Li32 F32'
_cell_volume   955.16102782
_cell_formula_units_Z   32
loop_
 _symmetry_equiv_pos_site_id
 _symmetry_equiv_pos_as_xyz
  1  'x, y, z'
loop_
 _atom_site_type_symbol
 _atom_site_label
 _atom_site_symmetry_multiplicity
 _atom_site_fract_x
 _atom_site_fract_y
 _atom_site_fract_z
 _atom_site_occupancy
  F  F0  1  0.48236622  0.64483852  0.00000000  1
  F  F1  1  0.51763378  0.35516148  -0.00000000  1
  F  F2  1  0.01763378  0.14483852  0.00000000  1
  F  F3  1  0.98236622  0.85516148  0.00000000  1
  F  F4  1  0.00000000  0.50000000  0.50000000  1
  F  F5  1  0.50000000  0.00000000  0.50000000  1
  F  F6  1  0.00000000  0.50000000  0.30104209  1
  F  F7  1  0.50000000  0.00000000  0.69895791  1
  F  F8  1  0.00000000  0.50000000  0.69895791  1
  F  F9  1  0.50000000  0.00000000  0.30104209  1
  F  F10  1  0.86027257  0.63860845  -0.00000000  1
  F  F11  1  0.13972743  0.36139155  -0.00000000  1
  F  F12  1  0.63972743  0.13860845  -0.00000000  1
  F  F13  1  0.36027257  0.86139155  -0.00000000  1
  F  F14  1  0.31710286  0.46437024  0.29196603  1
  F  F15  1  0.68289714  0.53562976  0.29196603  1
  F  F16  1  0.18289714  0.96437024  0.70803397  1
  F  F17  1  0.81710286  0.03562976  0.70803397  1
  F  F18  1  0.68289714  0.53562976  0.70803397  1
  F  F19  1  0.31710286  0.46437024  0.70803397  1
  F  F20  1  0.81710286  0.03562976  0.29196603  1
  F  F21  1  0.18289714  0.96437024  0.29196603  1
  F  F22  1  0.00000000  0.00000000  0.50000000  1
  F  F23  1  0.50000000  0.50000000  0.50000000  1
  F  F24  1  0.11261790  0.33253543  0.64618548  1
  F  F25  1  0.88738210  0.66746457  0.64618548  1
  F  F26  1  0.38738210  0.83253543  0.35381452  1
  F  F27  1  0.61261790  0.16746457  0.35381452  1
  F  F28  1  0.88738210  0.66746457  0.35381452  1
  F  F29  1  0.11261790  0.33253543  0.35381452  1
  F  F30  1  0.61261790  0.16746457  0.64618548  1
  F  F31  1  0.38738210  0.83253543  0.64618548  1
  Li  Li32  1  0.70033719  0.16952177  0.35653950  1
  Li  Li33  1  -0.70033719  -0.16952177  0.35653950  1
  Li  Li34  1  -0.20033719  0.66952177  -0.35653950  1
  Li  Li35  1  1.20033719  0.33047823  -0.35653950  1
  Li  Li36  1  -0.70033719  -0.16952177  -0.35653950  1
  Li  Li37  1  0.70033719  0.16952177  -0.35653950  1
  Li  Li38  1  1.20033719  0.33047823  0.35653950  1
  Li  Li39  1  -0.20033719  0.66952177  0.35653950  1
  Li  Li40  1  0.98567293  0.87024615  0.15704940  1
  Li  Li41  1  0.01432707  0.12975385  0.15704940  1
  Li  Li42  1  0.51432707  0.37024615  0.84295060  1
  Li  Li43  1  0.48567293  0.62975385  0.84295060  1
  Li  Li44  1  0.01432707  0.12975385  0.84295060  1
  Li  Li45  1  0.98567293  0.87024615  0.84295060  1
  Li  Li46  1  0.48567293  0.62975385  0.15704940  1
  Li  Li47  1  0.51432707  0.37024615  0.15704940  1
  Li  Li48  1  0.29071892  0.97406171  0.25872678  1
  Li  Li49  1  0.70928108  0.02593829  0.25872678  1
  Li  Li50  1  0.20928108  0.47406171  0.74127322  1
  Li  Li51  1  0.79071892  0.52593829  0.74127322  1
  Li  Li52  1  0.70928108  0.02593829  0.74127322  1
  Li  Li53  1  0.29071892  0.97406171  0.74127322  1
  Li  Li54  1  0.79071892  0.52593829  0.25872678  1
  Li  Li55  1  0.20928108  0.47406171  0.25872678  1
  Li  Li56  1  0.00000000  0.00000000  0.00000000  1
  Li  Li57  1  0.50000000  0.50000000  0.00000000  1
  Li  Li58  1  0.12304450  0.92167664  0.50000000  1
  Li  Li59  1  0.87695550  0.07832336  0.50000000  1
  Li  Li60  1  0.37695550  0.42167664  0.50000000  1
  Li  Li61  1  0.62304450  0.57832336  0.50000000  1
  Li  Li62  1  0.00000000  0.50000000  0.00000000  1
  Li  Li63  1  0.50000000  0.00000000  0.00000000  1
