# generated using pymatgen
data_LiF
_symmetry_space_group_name_H-M   'P 1'
_cell_length_a   12.83030516
_cell_length_b   8.78805672
_cell_length_c   6.08319918
_cell_angle_alpha   90.00000000
_cell_angle_beta   90.00000000
_cell_angle_gamma   90.00000000
_symmetry_Int_Tables_number   1
_chemical_formula_structural   LiF
_chemical_formula_sum   'Li24 F24'
_cell_volume   685.90169194
_cell_formula_units_Z   24
loop_
 _symmetry_equiv_pos_site_id
 _symmetry_equiv_pos_as_xyz
  1  'x, y, z'
loop_
 _atom_site_type_symbol
 _atom_site_label
 _atom_site_symmetry_multiplicity
 _atom_site_fract_x
 _atom_site_fract_y
 _atom_site_fract_z
 _atom_site_occupancy
  F  F0  1  0.53038959  0.25000000  0.74751567  1
  F  F1  1  0.96961041  0.75000000  0.24751567  1
  F  F2  1  0.46961041  0.75000000  0.25248433  1
  F  F3  1  0.03038959  0.25000000  0.75248433  1
  F  F4  1  0.00000000  0.00000000  0.00000000  1
  F  F5  1  0.50000000  0.00000000  0.50000000  1
  F  F6  1  0.00000000  0.50000000  0.00000000  1
  F  F7  1  0.50000000  0.50000000  0.50000000  1
  F  F8  1  0.15668226  0.91266735  0.02335771  1
  F  F9  1  0.34331774  0.08733265  0.52335771  1
  F  F10  1  0.84331774  0.41266735  0.97664229  1
  F  F11  1  0.65668226  0.58733265  0.47664229  1
  F  F12  1  0.84331774  0.08733265  0.97664229  1
  F  F13  1  0.65668226  0.91266735  0.47664229  1
  F  F14  1  0.15668226  0.58733265  0.02335771  1
  F  F15  1  0.34331774  0.41266735  0.52335771  1
  F  F16  1  0.29422917  0.51679244  0.10274095  1
  F  F17  1  0.20577083  0.48320756  0.60274095  1
  F  F18  1  0.70577083  0.01679244  0.89725905  1
  F  F19  1  0.79422917  0.98320756  0.39725905  1
  F  F20  1  0.70577083  0.48320756  0.89725905  1
  F  F21  1  0.79422917  0.51679244  0.39725905  1
  F  F22  1  0.29422917  0.98320756  0.10274095  1
  F  F23  1  0.20577083  0.01679244  0.60274095  1
  Li  Li24  1  0.36100498  0.62182603  0.02333270  1
  Li  Li25  1  0.13899502  -0.62182603  0.52333270  1
  Li  Li26  1  -0.36100498  1.12182603  -0.02333270  1
  Li  Li27  1  0.86100498  -0.12182603  0.47666730  1
  Li  Li28  1  -0.36100498  -0.62182603  -0.02333270  1
  Li  Li29  1  0.86100498  0.62182603  0.47666730  1
  Li  Li30  1  0.36100498  -0.12182603  0.02333270  1
  Li  Li31  1  0.13899502  1.12182603  0.52333270  1
  Li  Li32  1  0.83630639  0.51153871  0.77461504  1
  Li  Li33  1  0.66369361  0.48846129  0.27461504  1
  Li  Li34  1  0.16369361  0.01153871  0.22538496  1
  Li  Li35  1  0.33630639  0.98846129  0.72538496  1
  Li  Li36  1  0.16369361  0.48846129  0.22538496  1
  Li  Li37  1  0.33630639  0.51153871  0.72538496  1
  Li  Li38  1  0.83630639  0.98846129  0.77461504  1
  Li  Li39  1  0.66369361  0.01153871  0.27461504  1
  Li  Li40  1  0.39940226  0.25000000  0.01785515  1
  Li  Li41  1  0.10059774  0.75000000  0.51785515  1
  Li  Li42  1  0.60059774  0.75000000  0.98214485  1
  Li  Li43  1  0.89940226  0.25000000  0.48214485  1
  Li  Li44  1  0.78316100  0.25000000  0.63819915  1
  Li  Li45  1  0.71683900  0.75000000  0.13819915  1
  Li  Li46  1  0.21683900  0.75000000  0.36180085  1
  Li  Li47  1  0.28316100  0.25000000  0.86180085  1
