# generated using pymatgen
data_LiF
_symmetry_space_group_name_H-M   'P 1'
_cell_length_a   7.41194459
_cell_length_b   7.41194459
_cell_length_c   8.16853959
_cell_angle_alpha   90.00000000
_cell_angle_beta   90.00000000
_cell_angle_gamma   120.00000000
_symmetry_Int_Tables_number   1
_chemical_formula_structural   LiF
_chemical_formula_sum   'Li12 F12'
_cell_volume   388.63273405
_cell_formula_units_Z   12
loop_
 _symmetry_equiv_pos_site_id
 _symmetry_equiv_pos_as_xyz
  1  'x, y, z'
loop_
 _atom_site_type_symbol
 _atom_site_label
 _atom_site_symmetry_multiplicity
 _atom_site_fract_x
 _atom_site_fract_y
 _atom_site_fract_z
 _atom_site_occupancy
  F  F0  1  0.85009858  0.39860925  0.13713128  1
  F  F1  1  0.60139075  0.45148932  0.13713128  1
  F  F2  1  0.54851068  0.14990142  0.13713128  1
  F  F3  1  0.60139075  0.14990142  0.86286872  1
  F  F4  1  0.54851068  0.39860925  0.86286872  1
  F  F5  1  0.85009858  0.45148932  0.86286872  1
  F  F6  1  0.00000000  0.00000000  0.62894764  1
  F  F7  1  0.00000000  0.00000000  0.37105236  1
  F  F8  1  0.22280727  0.77719273  0.00000000  1
  F  F9  1  0.22280727  0.44561454  0.00000000  1
  F  F10  1  0.55438546  0.77719273  0.00000000  1
  F  F11  1  0.00000000  0.00000000  0.50000000  1
  Li  Li12  1  0.33333333  0.66666667  0.59069254  1
  Li  Li13  1  0.33333333  0.66666667  0.40930746  1
  Li  Li14  1  0.21508019  0.51163817  0.23836498  1
  Li  Li15  1  -0.51163817  -0.29655798  0.23836498  1
  Li  Li16  1  0.29655798  -0.21508019  0.23836498  1
  Li  Li17  1  -0.51163817  -0.21508019  -0.23836498  1
  Li  Li18  1  0.29655798  0.51163817  -0.23836498  1
  Li  Li19  1  0.21508019  -0.29655798  -0.23836498  1
  Li  Li20  1  0.49415109  0.50584891  0.00000000  1
  Li  Li21  1  0.49415109  0.98830217  0.00000000  1
  Li  Li22  1  0.01169783  0.50584891  0.00000000  1
  Li  Li23  1  0.00000000  0.00000000  0.00000000  1
