# generated using pymatgen
data_Li2Y2As2P4Se
_symmetry_space_group_name_H-M   'P 1'
_cell_length_a   5.32277743
_cell_length_b   5.43630531
_cell_length_c   7.40890723
_cell_angle_alpha   94.23347071
_cell_angle_beta   99.21961907
_cell_angle_gamma   107.00416926
_symmetry_Int_Tables_number   1
_chemical_formula_structural   Li2Y2As2P4Se
_chemical_formula_sum   'Li2 Y2 As2 P4 Se1'
_cell_volume   200.70471216
_cell_formula_units_Z   1
loop_
 _symmetry_equiv_pos_site_id
 _symmetry_equiv_pos_as_xyz
  1  'x, y, z'
loop_
 _atom_site_type_symbol
 _atom_site_label
 _atom_site_symmetry_multiplicity
 _atom_site_fract_x
 _atom_site_fract_y
 _atom_site_fract_z
 _atom_site_occupancy
  Se  Se0  1  0.00000000  0.00000000  0.00000000  1
  Y  Y1  1  0.50000000  0.50000000  0.50000000  1
  Y  Y2  1  0.25000000  0.25000000  0.25000000  1
  P  P3  1  0.75000000  0.25000000  0.00000000  1
  P  P4  1  0.25000000  0.75000000  0.50000000  1
  P  P5  1  0.38087382  0.27441590  0.88661050  1
  P  P6  1  0.43528125  0.47346200  0.83490539  1
  As  As7  1  0.25754640  0.06454974  0.64405546  1
  As  As8  1  0.77745601  0.81385680  0.78745932  1
  Li  Li9  1  0.84100794  0.83921831  0.21956137  1
  Li  Li10  1  0.55989064  0.86925543  0.38606612  1
