# generated using pymatgen
data_LiF
_symmetry_space_group_name_H-M   'P 1'
_cell_length_a   8.06707390
_cell_length_b   6.08586591
_cell_length_c   7.51326618
_cell_angle_alpha   90.00000000
_cell_angle_beta   90.00000000
_cell_angle_gamma   90.00000000
_symmetry_Int_Tables_number   1
_chemical_formula_structural   LiF
_chemical_formula_sum   'Li24 F24'
_cell_volume   368.86478020
_cell_formula_units_Z   24
loop_
 _symmetry_equiv_pos_site_id
 _symmetry_equiv_pos_as_xyz
  1  'x, y, z'
loop_
 _atom_site_type_symbol
 _atom_site_label
 _atom_site_symmetry_multiplicity
 _atom_site_fract_x
 _atom_site_fract_y
 _atom_site_fract_z
 _atom_site_occupancy
  F  F0  1  0.78924949  0.99447626  0.59749653  1
  F  F1  1  0.71075051  0.00552374  0.09749653  1
  F  F2  1  0.21075051  0.49447626  0.40250347  1
  F  F3  1  0.28924949  0.50552374  0.90250347  1
  F  F4  1  0.21075051  0.00552374  0.40250347  1
  F  F5  1  0.28924949  0.99447626  0.90250347  1
  F  F6  1  0.78924949  0.50552374  0.59749653  1
  F  F7  1  0.71075051  0.49447626  0.09749653  1
  F  F8  1  0.51975511  0.69932485  0.83870458  1
  F  F9  1  0.98024489  0.30067515  0.33870458  1
  F  F10  1  0.48024489  0.19932485  0.16129542  1
  F  F11  1  0.01975511  0.80067515  0.66129542  1
  F  F12  1  0.48024489  0.30067515  0.16129542  1
  F  F13  1  0.01975511  0.69932485  0.66129542  1
  F  F14  1  0.51975511  0.80067515  0.83870458  1
  F  F15  1  0.98024489  0.19932485  0.33870458  1
  F  F16  1  0.73012674  0.25000000  0.23025894  1
  F  F17  1  0.76987326  0.75000000  0.73025894  1
  F  F18  1  0.26987326  0.75000000  0.76974106  1
  F  F19  1  0.23012674  0.25000000  0.26974106  1
  F  F20  1  0.00000000  0.00000000  0.50000000  1
  F  F21  1  0.50000000  0.00000000  0.00000000  1
  F  F22  1  0.00000000  0.50000000  0.50000000  1
  F  F23  1  0.50000000  0.50000000  0.00000000  1
  Li  Li24  1  0.00000000  0.00000000  0.00000000  1
  Li  Li25  1  0.50000000  0.00000000  0.50000000  1
  Li  Li26  1  0.00000000  0.50000000  0.00000000  1
  Li  Li27  1  0.50000000  0.50000000  0.50000000  1
  Li  Li28  1  0.68764984  0.56724957  0.55237324  1
  Li  Li29  1  -0.18764984  -0.56724957  1.05237324  1
  Li  Li30  1  -0.68764984  1.06724957  -0.55237324  1
  Li  Li31  1  1.18764984  -0.06724957  -0.05237324  1
  Li  Li32  1  -0.68764984  -0.56724957  -0.55237324  1
  Li  Li33  1  1.18764984  0.56724957  -0.05237324  1
  Li  Li34  1  0.68764984  -0.06724957  0.55237324  1
  Li  Li35  1  -0.18764984  1.06724957  1.05237324  1
  Li  Li36  1  0.66355985  0.06030567  0.72403981  1
  Li  Li37  1  0.83644015  0.93969433  0.22403981  1
  Li  Li38  1  0.33644015  0.56030567  0.27596019  1
  Li  Li39  1  0.16355985  0.43969433  0.77596019  1
  Li  Li40  1  0.33644015  0.93969433  0.27596019  1
  Li  Li41  1  0.16355985  0.06030567  0.77596019  1
  Li  Li42  1  0.66355985  0.43969433  0.72403981  1
  Li  Li43  1  0.83644015  0.56030567  0.22403981  1
  Li  Li44  1  0.80748524  0.25000000  0.52190180  1
  Li  Li45  1  0.69251476  0.75000000  0.02190180  1
  Li  Li46  1  0.19251476  0.75000000  0.47809820  1
  Li  Li47  1  0.30748524  0.25000000  0.97809820  1
