# generated using pymatgen
data_LiF
_symmetry_space_group_name_H-M   'P 1'
_cell_length_a   8.33544175
_cell_length_b   7.03989925
_cell_length_c   12.11641830
_cell_angle_alpha   90.00000000
_cell_angle_beta   90.00000000
_cell_angle_gamma   90.00000000
_symmetry_Int_Tables_number   1
_chemical_formula_structural   LiF
_chemical_formula_sum   'Li24 F24'
_cell_volume   710.99954549
_cell_formula_units_Z   24
loop_
 _symmetry_equiv_pos_site_id
 _symmetry_equiv_pos_as_xyz
  1  'x, y, z'
loop_
 _atom_site_type_symbol
 _atom_site_label
 _atom_site_symmetry_multiplicity
 _atom_site_fract_x
 _atom_site_fract_y
 _atom_site_fract_z
 _atom_site_occupancy
  F  F0  1  0.13250180  0.13733026  0.18513121  1
  F  F1  1  0.36749820  0.86266974  0.68513121  1
  F  F2  1  0.86749820  0.63733026  0.81486879  1
  F  F3  1  0.63250180  0.36266974  0.31486879  1
  F  F4  1  0.86749820  0.86266974  0.81486879  1
  F  F5  1  0.63250180  0.13733026  0.31486879  1
  F  F6  1  0.13250180  0.36266974  0.18513121  1
  F  F7  1  0.36749820  0.63733026  0.68513121  1
  F  F8  1  0.06692431  0.25000000  0.09517971  1
  F  F9  1  0.43307569  0.75000000  0.59517971  1
  F  F10  1  0.93307569  0.75000000  0.90482029  1
  F  F11  1  0.56692431  0.25000000  0.40482029  1
  F  F12  1  0.71158142  0.32737977  0.42409991  1
  F  F13  1  0.78841858  0.67262023  0.92409991  1
  F  F14  1  0.28841858  0.82737977  0.57590009  1
  F  F15  1  0.21158142  0.17262023  0.07590009  1
  F  F16  1  0.28841858  0.67262023  0.57590009  1
  F  F17  1  0.21158142  0.32737977  0.07590009  1
  F  F18  1  0.71158142  0.17262023  0.42409991  1
  F  F19  1  0.78841858  0.82737977  0.92409991  1
  F  F20  1  0.00000000  0.00000000  0.00000000  1
  F  F21  1  0.50000000  0.00000000  0.50000000  1
  F  F22  1  0.00000000  0.50000000  0.00000000  1
  F  F23  1  0.50000000  0.50000000  0.50000000  1
  Li  Li24  1  0.00000000  0.00000000  0.50000000  1
  Li  Li25  1  0.50000000  0.00000000  0.00000000  1
  Li  Li26  1  0.00000000  0.50000000  0.50000000  1
  Li  Li27  1  0.50000000  0.50000000  0.00000000  1
  Li  Li28  1  0.61640524  0.25000000  0.95832908  1
  Li  Li29  1  0.88359476  0.75000000  0.45832908  1
  Li  Li30  1  0.38359476  0.75000000  0.04167092  1
  Li  Li31  1  0.11640524  0.25000000  0.54167092  1
  Li  Li32  1  0.99037726  0.62030805  0.88459314  1
  Li  Li33  1  -0.49037726  -0.62030805  1.38459314  1
  Li  Li34  1  -0.99037726  1.12030805  -0.88459314  1
  Li  Li35  1  1.49037726  -0.12030805  -0.38459314  1
  Li  Li36  1  -0.99037726  -0.62030805  -0.88459314  1
  Li  Li37  1  1.49037726  0.62030805  -0.38459314  1
  Li  Li38  1  0.99037726  -0.12030805  0.88459314  1
  Li  Li39  1  -0.49037726  1.12030805  1.38459314  1
  Li  Li40  1  0.39292201  0.95620392  0.81426952  1
  Li  Li41  1  0.10707799  0.04379608  0.31426952  1
  Li  Li42  1  0.60707799  0.45620392  0.18573048  1
  Li  Li43  1  0.89292201  0.54379608  0.68573048  1
  Li  Li44  1  0.60707799  0.04379608  0.18573048  1
  Li  Li45  1  0.89292201  0.95620392  0.68573048  1
  Li  Li46  1  0.39292201  0.54379608  0.81426952  1
  Li  Li47  1  0.10707799  0.45620392  0.31426952  1
