# generated using pymatgen
data_LiF
_symmetry_space_group_name_H-M   'P 1'
_cell_length_a   9.58260973
_cell_length_b   6.35642416
_cell_length_c   7.81450552
_cell_angle_alpha   90.00000000
_cell_angle_beta   90.00000000
_cell_angle_gamma   90.00000000
_symmetry_Int_Tables_number   1
_chemical_formula_structural   LiF
_chemical_formula_sum   'Li24 F24'
_cell_volume   475.99037755
_cell_formula_units_Z   24
loop_
 _symmetry_equiv_pos_site_id
 _symmetry_equiv_pos_as_xyz
  1  'x, y, z'
loop_
 _atom_site_type_symbol
 _atom_site_label
 _atom_site_symmetry_multiplicity
 _atom_site_fract_x
 _atom_site_fract_y
 _atom_site_fract_z
 _atom_site_occupancy
  F  F0  1  0.00000000  0.50000000  0.00000000  1
  F  F1  1  0.50000000  0.00000000  0.00000000  1
  F  F2  1  0.46356841  0.56664324  0.33749420  1
  F  F3  1  -0.46356841  -0.56664324  0.33749420  1
  F  F4  1  0.03643159  1.06664324  -0.33749420  1
  F  F5  1  0.96356841  -0.06664324  -0.33749420  1
  F  F6  1  -0.46356841  -0.56664324  -0.33749420  1
  F  F7  1  0.46356841  0.56664324  -0.33749420  1
  F  F8  1  0.96356841  -0.06664324  0.33749420  1
  F  F9  1  0.03643159  1.06664324  0.33749420  1
  F  F10  1  0.23479615  0.55610443  0.44787542  1
  F  F11  1  0.76520385  0.44389557  0.44787542  1
  F  F12  1  0.26520385  0.05610443  0.55212458  1
  F  F13  1  0.73479615  0.94389557  0.55212458  1
  F  F14  1  0.76520385  0.44389557  0.55212458  1
  F  F15  1  0.23479615  0.55610443  0.55212458  1
  F  F16  1  0.73479615  0.94389557  0.44787542  1
  F  F17  1  0.26520385  0.05610443  0.44787542  1
  F  F18  1  0.63944259  0.37082567  -0.00000000  1
  F  F19  1  0.36055741  0.62917433  0.00000000  1
  F  F20  1  0.86055741  0.87082567  -0.00000000  1
  F  F21  1  0.13944259  0.12917433  -0.00000000  1
  F  F22  1  0.00000000  0.00000000  0.00000000  1
  F  F23  1  0.50000000  0.50000000  0.00000000  1
  Li  Li24  1  0.00000000  0.00000000  0.87184478  1
  Li  Li25  1  0.50000000  0.50000000  0.12815522  1
  Li  Li26  1  0.00000000  0.00000000  0.12815522  1
  Li  Li27  1  0.50000000  0.50000000  0.87184478  1
  Li  Li28  1  0.26565004  0.50357033  0.00000000  1
  Li  Li29  1  0.73434996  0.49642967  0.00000000  1
  Li  Li30  1  0.23434996  0.00357033  0.00000000  1
  Li  Li31  1  0.76565004  0.99642967  0.00000000  1
  Li  Li32  1  0.62714424  0.97555519  0.71585988  1
  Li  Li33  1  0.37285576  0.02444481  0.71585988  1
  Li  Li34  1  0.87285576  0.47555519  0.28414012  1
  Li  Li35  1  0.12714424  0.52444481  0.28414012  1
  Li  Li36  1  0.37285576  0.02444481  0.28414012  1
  Li  Li37  1  0.62714424  0.97555519  0.28414012  1
  Li  Li38  1  0.12714424  0.52444481  0.71585988  1
  Li  Li39  1  0.87285576  0.47555519  0.71585988  1
  Li  Li40  1  0.00362249  0.37554645  0.50000000  1
  Li  Li41  1  0.99637751  0.62445355  0.50000000  1
  Li  Li42  1  0.49637751  0.87554645  0.50000000  1
  Li  Li43  1  0.50362249  0.12445355  0.50000000  1
  Li  Li44  1  0.37845570  0.90520743  0.00000000  1
  Li  Li45  1  0.62154430  0.09479257  0.00000000  1
  Li  Li46  1  0.12154430  0.40520743  0.00000000  1
  Li  Li47  1  0.87845570  0.59479257  -0.00000000  1
