# generated using pymatgen
data_LiF
_symmetry_space_group_name_H-M   'P 1'
_cell_length_a   11.36593211
_cell_length_b   11.36593211
_cell_length_c   6.93731919
_cell_angle_alpha   90.00000000
_cell_angle_beta   90.00000000
_cell_angle_gamma   90.00000000
_symmetry_Int_Tables_number   1
_chemical_formula_structural   LiF
_chemical_formula_sum   'Li32 F32'
_cell_volume   896.19350563
_cell_formula_units_Z   32
loop_
 _symmetry_equiv_pos_site_id
 _symmetry_equiv_pos_as_xyz
  1  'x, y, z'
loop_
 _atom_site_type_symbol
 _atom_site_label
 _atom_site_symmetry_multiplicity
 _atom_site_fract_x
 _atom_site_fract_y
 _atom_site_fract_z
 _atom_site_occupancy
  F  F0  1  0.93379493  0.84461837  0.74191364  1
  F  F1  1  -0.43379493  -0.84461837  1.24191364  1
  F  F2  1  -0.59461837  1.68379493  0.99191364  1
  F  F3  1  1.09461837  -0.68379493  1.49191364  1
  F  F4  1  -0.43379493  0.84461837  -0.74191364  1
  F  F5  1  0.93379493  -0.84461837  -0.24191364  1
  F  F6  1  1.09461837  1.68379493  0.00808636  1
  F  F7  1  -0.59461837  -0.68379493  -0.49191364  1
  F  F8  1  -0.93379493  -0.84461837  -0.74191364  1
  F  F9  1  1.43379493  0.84461837  -0.24191364  1
  F  F10  1  1.59461837  -0.68379493  0.00808636  1
  F  F11  1  -0.09461837  1.68379493  -0.49191364  1
  F  F12  1  1.43379493  -0.84461837  0.74191364  1
  F  F13  1  -0.93379493  0.84461837  1.24191364  1
  F  F14  1  -0.09461837  -0.68379493  0.99191364  1
  F  F15  1  1.59461837  1.68379493  1.49191364  1
  F  F16  1  1.43379493  1.34461837  1.24191364  1
  F  F17  1  0.06620507  -0.34461837  1.74191364  1
  F  F18  1  -0.09461837  2.18379493  1.49191364  1
  F  F19  1  1.59461837  -0.18379493  1.99191364  1
  F  F20  1  0.06620507  1.34461837  -0.24191364  1
  F  F21  1  1.43379493  -0.34461837  0.25808636  1
  F  F22  1  1.59461837  2.18379493  0.50808636  1
  F  F23  1  -0.09461837  -0.18379493  0.00808636  1
  F  F24  1  -0.43379493  -0.34461837  -0.24191364  1
  F  F25  1  1.93379493  1.34461837  0.25808636  1
  F  F26  1  2.09461837  -0.18379493  0.50808636  1
  F  F27  1  0.40538163  2.18379493  0.00808636  1
  F  F28  1  1.93379493  -0.34461837  1.24191364  1
  F  F29  1  -0.43379493  1.34461837  1.74191364  1
  F  F30  1  0.40538163  -0.18379493  1.49191364  1
  F  F31  1  2.09461837  2.18379493  1.99191364  1
  Li  Li32  1  0.09049497  0.34049497  0.12500000  1
  Li  Li33  1  0.40950503  0.65950503  0.62500000  1
  Li  Li34  1  0.90950503  0.84049497  0.37500000  1
  Li  Li35  1  0.59049497  0.15950503  0.87500000  1
  Li  Li36  1  0.90950503  0.65950503  0.87500000  1
  Li  Li37  1  0.59049497  0.34049497  0.37500000  1
  Li  Li38  1  0.09049497  0.15950503  0.62500000  1
  Li  Li39  1  0.40950503  0.84049497  0.12500000  1
  Li  Li40  1  0.59049497  0.84049497  0.62500000  1
  Li  Li41  1  0.90950503  0.15950503  0.12500000  1
  Li  Li42  1  0.40950503  0.34049497  0.87500000  1
  Li  Li43  1  0.09049497  0.65950503  0.37500000  1
  Li  Li44  1  0.40950503  0.15950503  0.37500000  1
  Li  Li45  1  0.09049497  0.84049497  0.87500000  1
  Li  Li46  1  0.59049497  0.65950503  0.12500000  1
  Li  Li47  1  0.90950503  0.34049497  0.62500000  1
  Li  Li48  1  0.12255240  -0.00000000  0.25000000  1
  Li  Li49  1  0.37744760  0.00000000  0.75000000  1
  Li  Li50  1  0.25000000  0.87255240  0.50000000  1
  Li  Li51  1  0.25000000  0.12744760  0.00000000  1
  Li  Li52  1  0.87744760  -0.00000000  0.75000000  1
  Li  Li53  1  0.62255240  -0.00000000  0.25000000  1
  Li  Li54  1  0.75000000  0.12744760  0.50000000  1
  Li  Li55  1  0.75000000  0.87255240  0.00000000  1
  Li  Li56  1  0.62255240  0.50000000  0.75000000  1
  Li  Li57  1  0.87744760  0.50000000  0.25000000  1
  Li  Li58  1  0.75000000  0.37255240  0.00000000  1
  Li  Li59  1  0.75000000  0.62744760  0.50000000  1
  Li  Li60  1  0.37744760  0.50000000  0.25000000  1
  Li  Li61  1  0.12255240  0.50000000  0.75000000  1
  Li  Li62  1  0.25000000  0.62744760  0.00000000  1
  Li  Li63  1  0.25000000  0.37255240  0.50000000  1
