# generated using pymatgen
data_Li2YP3F2
_symmetry_space_group_name_H-M   'P 1'
_cell_length_a   6.65883151
_cell_length_b   6.40734453
_cell_length_c   8.03804180
_cell_angle_alpha   93.88821101
_cell_angle_beta   98.46771523
_cell_angle_gamma   105.61739827
_symmetry_Int_Tables_number   1
_chemical_formula_structural   Li2YP3F2
_chemical_formula_sum   'Li2 Y1 P3 F2'
_cell_volume   324.59973423
_cell_formula_units_Z   1
loop_
 _symmetry_equiv_pos_site_id
 _symmetry_equiv_pos_as_xyz
  1  'x, y, z'
loop_
 _atom_site_type_symbol
 _atom_site_label
 _atom_site_symmetry_multiplicity
 _atom_site_fract_x
 _atom_site_fract_y
 _atom_site_fract_z
 _atom_site_occupancy
  P  P0  1  0.00000000  0.00000000  0.00000000  1
  P  P1  1  0.50000000  0.50000000  0.50000000  1
  P  P2  1  0.50000000  0.50000000  0.00000000  1
  F  F3  1  0.50000000  0.00000000  0.50000000  1
  F  F4  1  0.00000000  0.50000000  0.50000000  1
  Li  Li5  1  0.77144093  0.55371790  0.60152079  1
  Li  Li6  1  0.78944707  0.29609929  0.58650023  1
  Y  Y7  1  0.50467326  0.09545250  0.57602714  1
