# generated using pymatgen
data_Li2TiF
_symmetry_space_group_name_H-M   'P 1'
_cell_length_a   3.10681675
_cell_length_b   3.10290719
_cell_length_c   6.26225242
_cell_angle_alpha   113.41855246
_cell_angle_beta   106.60446497
_cell_angle_gamma   114.28538418
_symmetry_Int_Tables_number   1
_chemical_formula_structural   Li2TiF
_chemical_formula_sum   'Li2 Ti1 F1'
_cell_volume   42.59347262
_cell_formula_units_Z   1
loop_
 _symmetry_equiv_pos_site_id
 _symmetry_equiv_pos_as_xyz
  1  'x, y, z'
loop_
 _atom_site_type_symbol
 _atom_site_label
 _atom_site_symmetry_multiplicity
 _atom_site_fract_x
 _atom_site_fract_y
 _atom_site_fract_z
 _atom_site_occupancy
  F  F0  1  0.00000000  0.00000000  0.00000000  1
  Li  Li1  1  0.50000000  0.50000000  0.50000000  1
  Li  Li2  1  0.50000000  0.50000000  0.00000000  1
  Ti  Ti3  1  0.50000000  0.00000000  0.50000000  1
