# generated using pymatgen
data_LiCaF3
_symmetry_space_group_name_H-M   'P 1'
_cell_length_a   8.57246988
_cell_length_b   8.57246988
_cell_length_c   23.66644395
_cell_angle_alpha   90.00000000
_cell_angle_beta   90.00000000
_cell_angle_gamma   120.00000000
_symmetry_Int_Tables_number   1
_chemical_formula_structural   LiCaF3
_chemical_formula_sum   'Li18 Ca18 F54'
_cell_volume   1506.17548516
_cell_formula_units_Z   18
loop_
 _symmetry_equiv_pos_site_id
 _symmetry_equiv_pos_as_xyz
  1  'x, y, z'
loop_
 _atom_site_type_symbol
 _atom_site_label
 _atom_site_symmetry_multiplicity
 _atom_site_fract_x
 _atom_site_fract_y
 _atom_site_fract_z
 _atom_site_occupancy
  Ca  Ca0  1  0.33333333  0.66666667  -0.00000000  1
  Ca  Ca1  1  0.87501680  0.12498320  0.50000000  1
  Ca  Ca2  1  0.87501680  0.75003360  0.50000000  1
  Ca  Ca3  1  0.24996640  0.12498320  0.50000000  1
  Ca  Ca4  1  0.00000000  0.00000000  0.50000000  1
  Ca  Ca5  1  0.66666667  0.33333333  0.38824496  1
  Ca  Ca6  1  0.66666667  0.33333333  0.61175504  1
  Ca  Ca7  1  0.25115946  0.86080135  0.76505337  1
  Ca  Ca8  1  -0.86080135  -0.60964189  0.76505337  1
  Ca  Ca9  1  0.60964189  -0.25115946  0.76505337  1
  Ca  Ca10  1  -0.86080135  -0.25115946  -0.76505337  1
  Ca  Ca11  1  0.60964189  0.86080135  -0.76505337  1
  Ca  Ca12  1  0.25115946  -0.60964189  -0.76505337  1
  Ca  Ca13  1  0.33333333  0.66666667  0.50000000  1
  Ca  Ca14  1  0.33333333  0.66666667  0.40236343  1
  Ca  Ca15  1  0.33333333  0.66666667  0.59763657  1
  Ca  Ca16  1  0.00000000  0.00000000  0.00000000  1
  Ca  Ca17  1  0.66666667  0.33333333  0.50000000  1
  F  F18  1  0.20228074  0.82548766  0.67510629  1
  F  F19  1  0.17451234  0.37679308  0.67510629  1
  F  F20  1  0.62320692  0.79771926  0.67510629  1
  F  F21  1  0.17451234  0.79771926  0.32489371  1
  F  F22  1  0.62320692  0.82548766  0.32489371  1
  F  F23  1  0.20228074  0.37679308  0.32489371  1
  F  F24  1  0.54089975  0.12406963  0.37321139  1
  F  F25  1  0.87593037  0.41683012  0.37321139  1
  F  F26  1  0.58316988  0.45910025  0.37321139  1
  F  F27  1  0.87593037  0.45910025  0.62678861  1
  F  F28  1  0.58316988  0.12406963  0.62678861  1
  F  F29  1  0.54089975  0.41683012  0.62678861  1
  F  F30  1  0.20182341  0.41676436  0.08965972  1
  F  F31  1  0.58323564  0.78505905  0.08965972  1
  F  F32  1  0.21494095  0.79817659  0.08965972  1
  F  F33  1  0.58323564  0.79817659  0.91034028  1
  F  F34  1  0.21494095  0.41676436  0.91034028  1
  F  F35  1  0.20182341  0.78505905  0.91034028  1
  F  F36  1  0.59669580  0.44061951  0.45648207  1
  F  F37  1  0.55938049  0.15607629  0.45648207  1
  F  F38  1  0.84392371  0.40330420  0.45648207  1
  F  F39  1  0.55938049  0.40330420  0.54351793  1
  F  F40  1  0.84392371  0.44061951  0.54351793  1
  F  F41  1  0.59669580  0.15607629  0.54351793  1
  F  F42  1  0.26004703  0.26244012  0.08984999  1
  F  F43  1  0.73755988  0.99760691  0.08984999  1
  F  F44  1  0.00239309  0.73995297  0.08984999  1
  F  F45  1  0.73755988  0.73995297  0.91015001  1
  F  F46  1  0.00239309  0.26244012  0.91015001  1
  F  F47  1  0.26004703  0.99760691  0.91015001  1
  F  F48  1  0.96416452  0.45264981  0.89422295  1
  F  F49  1  0.54735019  0.51151471  0.89422295  1
  F  F50  1  0.48848529  0.03583548  0.89422295  1
  F  F51  1  0.54735019  0.03583548  0.10577705  1
  F  F52  1  0.48848529  0.45264981  0.10577705  1
  F  F53  1  0.96416452  0.51151471  0.10577705  1
  F  F54  1  0.89529596  0.79172586  0.37806959  1
  F  F55  1  0.20827414  0.10357010  0.37806959  1
  F  F56  1  0.89642990  0.10470404  0.37806959  1
  F  F57  1  0.20827414  0.10470404  0.62193041  1
  F  F58  1  0.89642990  0.79172586  0.62193041  1
  F  F59  1  0.89529596  0.10357010  0.62193041  1
  F  F60  1  0.69265612  0.62673083  0.12322662  1
  F  F61  1  0.37326917  0.06592529  0.12322662  1
  F  F62  1  0.93407471  0.30734388  0.12322662  1
  F  F63  1  0.37326917  0.30734388  0.87677338  1
  F  F64  1  0.93407471  0.62673083  0.87677338  1
  F  F65  1  0.69265612  0.06592529  0.87677338  1
  F  F66  1  0.12686131  0.87313869  0.50000000  1
  F  F67  1  0.12686131  0.25372261  0.50000000  1
  F  F68  1  0.74627739  0.87313869  0.50000000  1
  F  F69  1  0.57525449  0.42474551  -0.00000000  1
  F  F70  1  0.57525449  0.15050898  0.00000000  1
  F  F71  1  0.84949102  0.42474551  0.00000000  1
  Li  Li72  1  0.71821964  0.81942055  0.95468787  1
  Li  Li73  1  0.18057945  0.89879909  0.95468787  1
  Li  Li74  1  0.10120091  0.28178036  0.95468787  1
  Li  Li75  1  0.18057945  0.28178036  0.04531213  1
  Li  Li76  1  0.10120091  0.81942055  0.04531213  1
  Li  Li77  1  0.71821964  0.89879909  0.04531213  1
  Li  Li78  1  0.22576709  0.20729972  0.19615978  1
  Li  Li79  1  0.79270028  0.01846737  0.19615978  1
  Li  Li80  1  0.98153263  0.77423291  0.19615978  1
  Li  Li81  1  0.79270028  0.77423291  0.80384022  1
  Li  Li82  1  0.98153263  0.20729972  0.80384022  1
  Li  Li83  1  0.22576709  0.01846737  0.80384022  1
  Li  Li84  1  0.72367015  0.44007678  0.07254812  1
  Li  Li85  1  0.55992322  0.28359337  0.07254812  1
  Li  Li86  1  0.71640663  0.27632985  0.07254812  1
  Li  Li87  1  0.55992322  0.27632985  0.92745188  1
  Li  Li88  1  0.71640663  0.44007678  0.92745188  1
  Li  Li89  1  0.72367015  0.28359337  0.92745188  1
