# generated using pymatgen
data_LiF
_symmetry_space_group_name_H-M   'P 1'
_cell_length_a   7.81995871
_cell_length_b   12.80249180
_cell_length_c   4.33132486
_cell_angle_alpha   90.00000000
_cell_angle_beta   90.00000000
_cell_angle_gamma   90.00000000
_symmetry_Int_Tables_number   1
_chemical_formula_structural   LiF
_chemical_formula_sum   'Li16 F16'
_cell_volume   433.63040317
_cell_formula_units_Z   16
loop_
 _symmetry_equiv_pos_site_id
 _symmetry_equiv_pos_as_xyz
  1  'x, y, z'
loop_
 _atom_site_type_symbol
 _atom_site_label
 _atom_site_symmetry_multiplicity
 _atom_site_fract_x
 _atom_site_fract_y
 _atom_site_fract_z
 _atom_site_occupancy
  F  F0  1  0.73605244  0.12446487  0.89853300  1
  F  F1  1  0.76394756  0.87553513  0.39853300  1
  F  F2  1  0.26394756  0.62446487  0.10146700  1
  F  F3  1  0.23605244  0.37553513  0.60146700  1
  F  F4  1  0.26394756  0.87553513  0.10146700  1
  F  F5  1  0.23605244  0.12446487  0.60146700  1
  F  F6  1  0.73605244  0.37553513  0.89853300  1
  F  F7  1  0.76394756  0.62446487  0.39853300  1
  F  F8  1  0.17488394  0.44160410  0.70111592  1
  F  F9  1  0.32511606  0.55839590  0.20111592  1
  F  F10  1  0.82511606  0.94160410  0.29888408  1
  F  F11  1  0.67488394  0.05839590  0.79888408  1
  F  F12  1  0.82511606  0.55839590  0.29888408  1
  F  F13  1  0.67488394  0.44160410  0.79888408  1
  F  F14  1  0.17488394  0.05839590  0.70111592  1
  F  F15  1  0.32511606  0.94160410  0.20111592  1
  Li  Li16  1  0.55636784  0.80573224  0.31053895  1
  Li  Li17  1  -0.05636784  -0.80573224  0.81053895  1
  Li  Li18  1  -0.55636784  1.30573224  -0.31053895  1
  Li  Li19  1  1.05636784  -0.30573224  0.18946105  1
  Li  Li20  1  -0.55636784  -0.80573224  -0.31053895  1
  Li  Li21  1  1.05636784  0.80573224  0.18946105  1
  Li  Li22  1  0.55636784  -0.30573224  0.31053895  1
  Li  Li23  1  -0.05636784  1.30573224  0.81053895  1
  Li  Li24  1  0.00000000  0.00000000  0.50000000  1
  Li  Li25  1  0.50000000  0.00000000  0.00000000  1
  Li  Li26  1  0.00000000  0.50000000  0.50000000  1
  Li  Li27  1  0.50000000  0.50000000  0.00000000  1
  Li  Li28  1  0.00000000  0.00000000  0.00000000  1
  Li  Li29  1  0.50000000  0.00000000  0.50000000  1
  Li  Li30  1  0.00000000  0.50000000  0.00000000  1
  Li  Li31  1  0.50000000  0.50000000  0.50000000  1
