# generated using pymatgen
data_LiF
_symmetry_space_group_name_H-M   'P 1'
_cell_length_a   9.51441182
_cell_length_b   7.78210734
_cell_length_c   18.67957719
_cell_angle_alpha   90.00000000
_cell_angle_beta   90.00000000
_cell_angle_gamma   90.00000000
_symmetry_Int_Tables_number   1
_chemical_formula_structural   LiF
_chemical_formula_sum   'Li56 F56'
_cell_volume   1383.07650636
_cell_formula_units_Z   56
loop_
 _symmetry_equiv_pos_site_id
 _symmetry_equiv_pos_as_xyz
  1  'x, y, z'
loop_
 _atom_site_type_symbol
 _atom_site_label
 _atom_site_symmetry_multiplicity
 _atom_site_fract_x
 _atom_site_fract_y
 _atom_site_fract_z
 _atom_site_occupancy
  F  F0  1  0.19458876  0.25000000  0.83965537  1
  F  F1  1  0.30541124  0.75000000  0.33965537  1
  F  F2  1  0.80541124  0.75000000  0.16034463  1
  F  F3  1  0.69458876  0.25000000  0.66034463  1
  F  F4  1  0.86898519  0.49407040  0.33246860  1
  F  F5  1  0.63101481  0.50592960  0.83246860  1
  F  F6  1  0.13101481  0.99407040  0.66753140  1
  F  F7  1  0.36898519  0.00592960  0.16753140  1
  F  F8  1  0.13101481  0.50592960  0.66753140  1
  F  F9  1  0.36898519  0.49407040  0.16753140  1
  F  F10  1  0.86898519  0.00592960  0.33246860  1
  F  F11  1  0.63101481  0.99407040  0.83246860  1
  F  F12  1  0.47372956  0.25000000  0.06053515  1
  F  F13  1  0.02627044  0.75000000  0.56053515  1
  F  F14  1  0.52627044  0.75000000  0.93946485  1
  F  F15  1  0.97372956  0.25000000  0.43946485  1
  F  F16  1  0.40389922  0.51783715  0.80161913  1
  F  F17  1  0.09610078  0.48216285  0.30161913  1
  F  F18  1  0.59610078  0.01783715  0.19838087  1
  F  F19  1  0.90389922  0.98216285  0.69838087  1
  F  F20  1  0.59610078  0.48216285  0.19838087  1
  F  F21  1  0.90389922  0.51783715  0.69838087  1
  F  F22  1  0.40389922  0.98216285  0.80161913  1
  F  F23  1  0.09610078  0.01783715  0.30161913  1
  F  F24  1  0.00000000  0.00000000  0.00000000  1
  F  F25  1  0.50000000  0.00000000  0.50000000  1
  F  F26  1  0.00000000  0.50000000  0.00000000  1
  F  F27  1  0.50000000  0.50000000  0.50000000  1
  F  F28  1  0.46668188  0.54339410  0.34061524  1
  F  F29  1  0.03331812  0.45660590  0.84061524  1
  F  F30  1  0.53331812  0.04339410  0.65938476  1
  F  F31  1  0.96668188  0.95660590  0.15938476  1
  F  F32  1  0.53331812  0.45660590  0.65938476  1
  F  F33  1  0.96668188  0.54339410  0.15938476  1
  F  F34  1  0.46668188  0.95660590  0.34061524  1
  F  F35  1  0.03331812  0.04339410  0.84061524  1
  F  F36  1  0.91751232  0.63316464  0.25509941  1
  F  F37  1  0.58248768  0.36683536  0.75509941  1
  F  F38  1  0.08248768  0.13316464  0.74490059  1
  F  F39  1  0.41751232  0.86683536  0.24490059  1
  F  F40  1  0.08248768  0.36683536  0.74490059  1
  F  F41  1  0.41751232  0.63316464  0.24490059  1
  F  F42  1  0.91751232  0.86683536  0.25509941  1
  F  F43  1  0.58248768  0.13316464  0.75509941  1
  F  F44  1  0.27448793  0.25000000  0.02275555  1
  F  F45  1  0.22551207  0.75000000  0.52275555  1
  F  F46  1  0.72551207  0.75000000  0.97724445  1
  F  F47  1  0.77448793  0.25000000  0.47724445  1
  F  F48  1  0.81270456  0.25000000  0.39079351  1
  F  F49  1  0.68729544  0.75000000  0.89079351  1
  F  F50  1  0.18729544  0.75000000  0.60920649  1
  F  F51  1  0.31270456  0.25000000  0.10920649  1
  F  F52  1  0.88569365  0.25000000  0.01007480  1
  F  F53  1  0.61430635  0.75000000  0.51007480  1
  F  F54  1  0.11430635  0.75000000  0.98992520  1
  F  F55  1  0.38569365  0.25000000  0.48992520  1
  Li  Li56  1  0.71013349  0.25000000  0.88990005  1
  Li  Li57  1  0.78986651  0.75000000  0.38990005  1
  Li  Li58  1  0.28986651  0.75000000  0.11009995  1
  Li  Li59  1  0.21013349  0.25000000  0.61009995  1
  Li  Li60  1  0.80048703  0.25000000  0.14279922  1
  Li  Li61  1  0.69951297  0.75000000  0.64279922  1
  Li  Li62  1  0.19951297  0.75000000  0.85720078  1
  Li  Li63  1  0.30048703  0.25000000  0.35720078  1
  Li  Li64  1  0.48899736  0.84425861  0.14165248  1
  Li  Li65  1  0.01100264  -0.84425861  0.64165248  1
  Li  Li66  1  -0.48899736  1.34425861  -0.14165248  1
  Li  Li67  1  0.98899736  -0.34425861  0.35834752  1
  Li  Li68  1  -0.48899736  -0.84425861  -0.14165248  1
  Li  Li69  1  0.98899736  0.84425861  0.35834752  1
  Li  Li70  1  0.48899736  -0.34425861  0.14165248  1
  Li  Li71  1  0.01100264  1.34425861  0.64165248  1
  Li  Li72  1  0.31685604  0.98593914  0.33218099  1
  Li  Li73  1  0.18314396  0.01406086  0.83218099  1
  Li  Li74  1  0.68314396  0.48593914  0.66781901  1
  Li  Li75  1  0.81685604  0.51406086  0.16781901  1
  Li  Li76  1  0.68314396  0.01406086  0.66781901  1
  Li  Li77  1  0.81685604  0.98593914  0.16781901  1
  Li  Li78  1  0.31685604  0.51406086  0.33218099  1
  Li  Li79  1  0.18314396  0.48593914  0.83218099  1
  Li  Li80  1  0.57713133  0.54517136  0.72112219  1
  Li  Li81  1  0.92286867  0.45482864  0.22112219  1
  Li  Li82  1  0.42286867  0.04517136  0.27887781  1
  Li  Li83  1  0.07713133  0.95482864  0.77887781  1
  Li  Li84  1  0.42286867  0.45482864  0.27887781  1
  Li  Li85  1  0.07713133  0.54517136  0.77887781  1
  Li  Li86  1  0.57713133  0.95482864  0.72112219  1
  Li  Li87  1  0.92286867  0.04517136  0.22112219  1
  Li  Li88  1  0.86049236  0.87453617  0.86688261  1
  Li  Li89  1  0.63950764  0.12546383  0.36688261  1
  Li  Li90  1  0.13950764  0.37453617  0.13311739  1
  Li  Li91  1  0.36049236  0.62546383  0.63311739  1
  Li  Li92  1  0.13950764  0.12546383  0.13311739  1
  Li  Li93  1  0.36049236  0.87453617  0.63311739  1
  Li  Li94  1  0.86049236  0.62546383  0.86688261  1
  Li  Li95  1  0.63950764  0.37453617  0.36688261  1
  Li  Li96  1  0.11137850  0.46905019  0.97041818  1
  Li  Li97  1  0.38862150  0.53094981  0.47041818  1
  Li  Li98  1  0.88862150  0.96905019  0.02958182  1
  Li  Li99  1  0.61137850  0.03094981  0.52958182  1
  Li  Li100  1  0.88862150  0.53094981  0.02958182  1
  Li  Li101  1  0.61137850  0.46905019  0.52958182  1
  Li  Li102  1  0.11137850  0.03094981  0.97041818  1
  Li  Li103  1  0.38862150  0.96905019  0.47041818  1
  Li  Li104  1  0.09741343  0.25000000  0.50422827  1
  Li  Li105  1  0.40258657  0.75000000  0.00422827  1
  Li  Li106  1  0.90258657  0.75000000  0.49577173  1
  Li  Li107  1  0.59741343  0.25000000  0.99577173  1
  Li  Li108  1  0.00000000  0.00000000  0.50000000  1
  Li  Li109  1  0.50000000  0.00000000  0.00000000  1
  Li  Li110  1  0.00000000  0.50000000  0.50000000  1
  Li  Li111  1  0.50000000  0.50000000  0.00000000  1
