# generated using pymatgen
data_Li2Si4Te3F12
_symmetry_space_group_name_H-M   'P 1'
_cell_length_a   10.02663582
_cell_length_b   8.69733128
_cell_length_c   12.86667529
_cell_angle_alpha   90.00000000
_cell_angle_beta   90.00000000
_cell_angle_gamma   90.00000000
_symmetry_Int_Tables_number   1
_chemical_formula_structural   Li2Si4Te3F12
_chemical_formula_sum   'Li8 Si16 Te12 F48'
_cell_volume   1122.03807610
_cell_formula_units_Z   4
loop_
 _symmetry_equiv_pos_site_id
 _symmetry_equiv_pos_as_xyz
  1  'x, y, z'
loop_
 _atom_site_type_symbol
 _atom_site_label
 _atom_site_symmetry_multiplicity
 _atom_site_fract_x
 _atom_site_fract_y
 _atom_site_fract_z
 _atom_site_occupancy
  F  F0  1  0.47137200  0.84216745  0.73814442  1
  F  F1  1  0.52862800  0.15783255  0.73814442  1
  F  F2  1  0.02862800  0.34216745  0.76185558  1
  F  F3  1  0.97137200  0.65783255  0.76185558  1
  F  F4  1  0.52862800  0.15783255  0.26185558  1
  F  F5  1  0.47137200  0.84216745  0.26185558  1
  F  F6  1  0.97137200  0.65783255  0.23814442  1
  F  F7  1  0.02862800  0.34216745  0.23814442  1
  F  F8  1  0.86299618  0.93758416  0.63709941  1
  F  F9  1  0.13700382  0.06241584  0.63709941  1
  F  F10  1  0.63700382  0.43758416  0.86290059  1
  F  F11  1  0.36299618  0.56241584  0.86290059  1
  F  F12  1  0.13700382  0.06241584  0.36290059  1
  F  F13  1  0.86299618  0.93758416  0.36290059  1
  F  F14  1  0.36299618  0.56241584  0.13709941  1
  F  F15  1  0.63700382  0.43758416  0.13709941  1
  F  F16  1  0.26039457  0.43368592  0.92988198  1
  F  F17  1  0.73960543  0.56631408  0.92988198  1
  F  F18  1  0.23960543  0.93368592  0.57011802  1
  F  F19  1  0.76039457  0.06631408  0.57011802  1
  F  F20  1  0.73960543  0.56631408  0.07011802  1
  F  F21  1  0.26039457  0.43368592  0.07011802  1
  F  F22  1  0.76039457  0.06631408  0.42988198  1
  F  F23  1  0.23960543  0.93368592  0.42988198  1
  F  F24  1  0.00000000  0.50000000  0.15378242  1
  F  F25  1  0.50000000  -0.00000000  0.34621758  1
  F  F26  1  0.00000000  0.50000000  0.84621758  1
  F  F27  1  0.50000000  -0.00000000  0.65378242  1
  F  F28  1  0.30123915  0.00935520  0.10428504  1
  F  F29  1  0.69876085  0.99064480  0.10428504  1
  F  F30  1  0.19876085  0.50935520  0.39571496  1
  F  F31  1  0.80123915  0.49064480  0.39571496  1
  F  F32  1  0.69876085  0.99064480  0.89571496  1
  F  F33  1  0.30123915  0.00935520  0.89571496  1
  F  F34  1  0.80123915  0.49064480  0.60428504  1
  F  F35  1  0.19876085  0.50935520  0.60428504  1
  F  F36  1  0.00000000  0.00000000  0.27421507  1
  F  F37  1  0.50000000  0.50000000  0.22578493  1
  F  F38  1  0.00000000  0.00000000  0.72578493  1
  F  F39  1  0.50000000  0.50000000  0.77421507  1
  F  F40  1  0.16770711  0.60133485  0.85296422  1
  F  F41  1  0.83229289  0.39866515  0.85296422  1
  F  F42  1  0.33229289  0.10133485  0.64703578  1
  F  F43  1  0.66770711  0.89866515  0.64703578  1
  F  F44  1  0.83229289  0.39866515  0.14703578  1
  F  F45  1  0.16770711  0.60133485  0.14703578  1
  F  F46  1  0.66770711  0.89866515  0.35296422  1
  F  F47  1  0.33229289  0.10133485  0.35296422  1
  Li  Li48  1  0.57607372  0.84662899  0.56847200  1
  Li  Li49  1  0.42392628  0.15337101  0.56847200  1
  Li  Li50  1  0.92392628  0.34662899  0.93152800  1
  Li  Li51  1  0.07607372  0.65337101  0.93152800  1
  Li  Li52  1  0.42392628  0.15337101  0.43152800  1
  Li  Li53  1  0.57607372  0.84662899  0.43152800  1
  Li  Li54  1  0.07607372  0.65337101  0.06847200  1
  Li  Li55  1  0.92392628  0.34662899  0.06847200  1
  Si  Si56  1  0.00000000  0.00000000  0.00000000  1
  Si  Si57  1  0.50000000  0.50000000  0.50000000  1
  Si  Si58  1  0.00000000  0.50000000  0.50000000  1
  Si  Si59  1  0.50000000  -0.00000000  0.00000000  1
  Si  Si60  1  0.37446588  0.40884182  0.89875989  1
  Si  Si61  1  0.62553412  0.59115818  0.89875989  1
  Si  Si62  1  0.12553412  0.90884182  0.60124011  1
  Si  Si63  1  0.87446588  0.09115818  0.60124011  1
  Si  Si64  1  0.62553412  0.59115818  0.10124011  1
  Si  Si65  1  0.37446588  0.40884182  0.10124011  1
  Si  Si66  1  0.87446588  0.09115818  0.39875989  1
  Si  Si67  1  0.12553412  0.90884182  0.39875989  1
  Si  Si68  1  0.33813417  0.17263153  0.00000000  1
  Si  Si69  1  0.66186583  0.82736847  0.00000000  1
  Si  Si70  1  0.16186583  0.67263153  0.50000000  1
  Si  Si71  1  0.83813417  0.32736847  0.50000000  1
  Te  Te72  1  0.00000000  0.00000000  0.50000000  1
  Te  Te73  1  0.50000000  0.50000000  -0.00000000  1
  Te  Te74  1  0.81557986  0.00305967  0.20045668  1
  Te  Te75  1  -0.81557986  -0.00305967  0.20045668  1
  Te  Te76  1  -0.31557986  0.50305967  0.29954332  1
  Te  Te77  1  1.31557986  0.49694033  0.29954332  1
  Te  Te78  1  -0.81557986  -0.00305967  -0.20045668  1
  Te  Te79  1  0.81557986  0.00305967  -0.20045668  1
  Te  Te80  1  1.31557986  0.49694033  0.70045668  1
  Te  Te81  1  -0.31557986  0.50305967  0.70045668  1
  Te  Te82  1  0.00000000  0.50000000  0.00000000  1
  Te  Te83  1  0.50000000  -0.00000000  0.50000000  1
