# generated using pymatgen
data_LiF
_symmetry_space_group_name_H-M   'P 1'
_cell_length_a   9.21013576
_cell_length_b   9.21013576
_cell_length_c   19.06327665
_cell_angle_alpha   90.00000000
_cell_angle_beta   90.00000000
_cell_angle_gamma   120.00000000
_symmetry_Int_Tables_number   1
_chemical_formula_structural   LiF
_chemical_formula_sum   'Li52 F52'
_cell_volume   1400.42626035
_cell_formula_units_Z   52
loop_
 _symmetry_equiv_pos_site_id
 _symmetry_equiv_pos_as_xyz
  1  'x, y, z'
loop_
 _atom_site_type_symbol
 _atom_site_label
 _atom_site_symmetry_multiplicity
 _atom_site_fract_x
 _atom_site_fract_y
 _atom_site_fract_z
 _atom_site_occupancy
  F  F0  1  0.66666667  0.33333333  0.50000000  1
  F  F1  1  0.66666667  0.33333333  0.62401469  1
  F  F2  1  0.66666667  0.33333333  0.37598531  1
  F  F3  1  0.00000000  0.00000000  0.50000000  1
  F  F4  1  0.53963946  0.63107027  0.94722665  1
  F  F5  1  0.36892973  0.90856919  0.94722665  1
  F  F6  1  0.09143081  0.46036054  0.94722665  1
  F  F7  1  0.36892973  0.46036054  0.05277335  1
  F  F8  1  0.09143081  0.63107027  0.05277335  1
  F  F9  1  0.53963946  0.90856919  0.05277335  1
  F  F10  1  0.66666667  0.33333333  0.19074653  1
  F  F11  1  0.66666667  0.33333333  0.80925347  1
  F  F12  1  0.36635705  0.23686796  0.31683318  1
  F  F13  1  0.76313204  0.12948910  0.31683318  1
  F  F14  1  0.87051090  0.63364295  0.31683318  1
  F  F15  1  0.76313204  0.63364295  0.68316682  1
  F  F16  1  0.87051090  0.23686796  0.68316682  1
  F  F17  1  0.36635705  0.12948910  0.68316682  1
  F  F18  1  0.90246012  0.81989540  0.02323588  1
  F  F19  1  0.18010460  0.08256472  0.02323588  1
  F  F20  1  0.91743528  0.09753988  0.02323588  1
  F  F21  1  0.18010460  0.09753988  0.97676412  1
  F  F22  1  0.91743528  0.81989540  0.97676412  1
  F  F23  1  0.90246012  0.08256472  0.97676412  1
  F  F24  1  0.63021227  0.20698468  0.21144934  1
  F  F25  1  0.79301532  0.42322759  0.21144934  1
  F  F26  1  0.57677241  0.36978773  0.21144934  1
  F  F27  1  0.79301532  0.36978773  0.78855066  1
  F  F28  1  0.57677241  0.20698468  0.78855066  1
  F  F29  1  0.63021227  0.42322759  0.78855066  1
  F  F30  1  0.01563991  0.92232683  0.74764611  1
  F  F31  1  0.07767317  0.09331308  0.74764611  1
  F  F32  1  0.90668692  0.98436009  0.74764611  1
  F  F33  1  0.07767317  0.98436009  0.25235389  1
  F  F34  1  0.90668692  0.92232683  0.25235389  1
  F  F35  1  0.01563991  0.09331308  0.25235389  1
  F  F36  1  0.64053701  0.92592231  0.06187036  1
  F  F37  1  0.07407769  0.71461470  0.06187036  1
  F  F38  1  0.28538530  0.35946299  0.06187036  1
  F  F39  1  0.07407769  0.35946299  0.93812964  1
  F  F40  1  0.28538530  0.92592231  0.93812964  1
  F  F41  1  0.64053701  0.71461470  0.93812964  1
  F  F42  1  0.65924230  0.70865477  0.10435474  1
  F  F43  1  0.29134523  0.95058753  0.10435474  1
  F  F44  1  0.04941247  0.34075770  0.10435474  1
  F  F45  1  0.29134523  0.34075770  0.89564526  1
  F  F46  1  0.04941247  0.70865477  0.89564526  1
  F  F47  1  0.65924230  0.95058753  0.89564526  1
  F  F48  1  0.33333333  0.66666667  0.00000000  1
  F  F49  1  0.37747630  0.62252370  0.50000000  1
  F  F50  1  0.37747630  0.75495260  0.50000000  1
  F  F51  1  0.24504740  0.62252370  0.50000000  1
  Li  Li52  1  0.55889787  0.24434296  0.14423198  1
  Li  Li53  1  -0.24434296  0.31455491  0.14423198  1
  Li  Li54  1  -0.31455491  -0.55889787  0.14423198  1
  Li  Li55  1  -0.24434296  -0.55889787  -0.14423198  1
  Li  Li56  1  -0.31455491  0.24434296  -0.14423198  1
  Li  Li57  1  0.55889787  0.31455491  -0.14423198  1
  Li  Li58  1  0.50955319  0.21250984  0.69429566  1
  Li  Li59  1  0.78749016  0.29704335  0.69429566  1
  Li  Li60  1  0.70295665  0.49044681  0.69429566  1
  Li  Li61  1  0.78749016  0.49044681  0.30570434  1
  Li  Li62  1  0.70295665  0.21250984  0.30570434  1
  Li  Li63  1  0.50955319  0.29704335  0.30570434  1
  Li  Li64  1  0.00000000  0.00000000  0.71658640  1
  Li  Li65  1  0.00000000  0.00000000  0.28341360  1
  Li  Li66  1  0.66666667  0.33333333  0.00000000  1
  Li  Li67  1  0.10600981  0.89399019  0.00000000  1
  Li  Li68  1  0.10600981  0.21201962  0.00000000  1
  Li  Li69  1  0.78798038  0.89399019  0.00000000  1
  Li  Li70  1  0.79700355  0.67791123  0.54563337  1
  Li  Li71  1  0.32208877  0.11909233  0.54563337  1
  Li  Li72  1  0.88090767  0.20299645  0.54563337  1
  Li  Li73  1  0.32208877  0.20299645  0.45436663  1
  Li  Li74  1  0.88090767  0.67791123  0.45436663  1
  Li  Li75  1  0.79700355  0.11909233  0.45436663  1
  Li  Li76  1  0.00000000  0.00000000  0.00000000  1
  Li  Li77  1  0.01924480  0.36496310  0.17923660  1
  Li  Li78  1  0.63503690  0.65428169  0.17923660  1
  Li  Li79  1  0.34571831  0.98075520  0.17923660  1
  Li  Li80  1  0.63503690  0.98075520  0.82076340  1
  Li  Li81  1  0.34571831  0.36496310  0.82076340  1
  Li  Li82  1  0.01924480  0.65428169  0.82076340  1
  Li  Li83  1  0.49141951  0.50858049  0.00000000  1
  Li  Li84  1  0.49141951  0.98283902  0.00000000  1
  Li  Li85  1  0.01716098  0.50858049  0.00000000  1
  Li  Li86  1  0.72223481  0.88080056  0.78711778  1
  Li  Li87  1  0.11919944  0.84143425  0.78711778  1
  Li  Li88  1  0.15856575  0.27776519  0.78711778  1
  Li  Li89  1  0.11919944  0.27776519  0.21288222  1
  Li  Li90  1  0.15856575  0.88080056  0.21288222  1
  Li  Li91  1  0.72223481  0.84143425  0.21288222  1
  Li  Li92  1  0.17718127  0.06837066  0.61395381  1
  Li  Li93  1  0.93162934  0.10881061  0.61395381  1
  Li  Li94  1  0.89118939  0.82281873  0.61395381  1
  Li  Li95  1  0.93162934  0.82281873  0.38604619  1
  Li  Li96  1  0.89118939  0.06837066  0.38604619  1
  Li  Li97  1  0.17718127  0.10881061  0.38604619  1
  Li  Li98  1  0.00135183  0.86999603  0.12368182  1
  Li  Li99  1  0.13000397  0.13135580  0.12368182  1
  Li  Li100  1  0.86864420  0.99864817  0.12368182  1
  Li  Li101  1  0.13000397  0.99864817  0.87631818  1
  Li  Li102  1  0.86864420  0.86999603  0.87631818  1
  Li  Li103  1  0.00135183  0.13135580  0.87631818  1
