# generated using pymatgen
data_LiF
_symmetry_space_group_name_H-M   'P 1'
_cell_length_a   9.49592510
_cell_length_b   14.11575360
_cell_length_c   9.34425550
_cell_angle_alpha   90.00000000
_cell_angle_beta   90.00000000
_cell_angle_gamma   90.00000000
_symmetry_Int_Tables_number   1
_chemical_formula_structural   LiF
_chemical_formula_sum   'Li54 F54'
_cell_volume   1252.52399401
_cell_formula_units_Z   54
loop_
 _symmetry_equiv_pos_site_id
 _symmetry_equiv_pos_as_xyz
  1  'x, y, z'
loop_
 _atom_site_type_symbol
 _atom_site_label
 _atom_site_symmetry_multiplicity
 _atom_site_fract_x
 _atom_site_fract_y
 _atom_site_fract_z
 _atom_site_occupancy
  F  F0  1  0.26741944  0.19574064  0.15438825  1
  F  F1  1  0.73258056  0.80425936  0.15438825  1
  F  F2  1  0.23258056  0.69574064  0.84561175  1
  F  F3  1  0.76741944  0.30425936  0.84561175  1
  F  F4  1  0.73258056  0.80425936  0.84561175  1
  F  F5  1  0.26741944  0.19574064  0.84561175  1
  F  F6  1  0.76741944  0.30425936  0.15438825  1
  F  F7  1  0.23258056  0.69574064  0.15438825  1
  F  F8  1  0.43737410  0.76461362  0.76097059  1
  F  F9  1  0.56262590  0.23538638  0.76097059  1
  F  F10  1  0.06262590  0.26461362  0.23902941  1
  F  F11  1  0.93737410  0.73538638  0.23902941  1
  F  F12  1  0.56262590  0.23538638  0.23902941  1
  F  F13  1  0.43737410  0.76461362  0.23902941  1
  F  F14  1  0.93737410  0.73538638  0.76097059  1
  F  F15  1  0.06262590  0.26461362  0.76097059  1
  F  F16  1  0.57257955  0.73492668  0.82242959  1
  F  F17  1  0.42742045  0.26507332  0.82242959  1
  F  F18  1  0.92742045  0.23492668  0.17757041  1
  F  F19  1  0.07257955  0.76507332  0.17757041  1
  F  F20  1  0.42742045  0.26507332  0.17757041  1
  F  F21  1  0.57257955  0.73492668  0.17757041  1
  F  F22  1  0.07257955  0.76507332  0.82242959  1
  F  F23  1  0.92742045  0.23492668  0.82242959  1
  F  F24  1  0.37612786  0.73306093  0.63947149  1
  F  F25  1  0.62387214  0.26693907  0.63947149  1
  F  F26  1  0.12387214  0.23306093  0.36052851  1
  F  F27  1  0.87612786  0.76693907  0.36052851  1
  F  F28  1  0.62387214  0.26693907  0.36052851  1
  F  F29  1  0.37612786  0.73306093  0.36052851  1
  F  F30  1  0.87612786  0.76693907  0.63947149  1
  F  F31  1  0.12387214  0.23306093  0.63947149  1
  F  F32  1  0.68354423  0.05668860  0.00000000  1
  F  F33  1  0.31645577  0.94331140  -0.00000000  1
  F  F34  1  0.81645577  0.55668860  0.00000000  1
  F  F35  1  0.18354423  0.44331140  0.00000000  1
  F  F36  1  0.19554859  0.67285019  0.21657010  1
  F  F37  1  0.80445141  0.32714981  0.21657010  1
  F  F38  1  0.30445141  0.17285019  0.78342990  1
  F  F39  1  0.69554859  0.82714981  0.78342990  1
  F  F40  1  0.80445141  0.32714981  0.78342990  1
  F  F41  1  0.19554859  0.67285019  0.78342990  1
  F  F42  1  0.69554859  0.82714981  0.21657010  1
  F  F43  1  0.30445141  0.17285019  0.21657010  1
  F  F44  1  0.28862384  0.83769336  0.50000000  1
  F  F45  1  0.71137616  0.16230664  0.50000000  1
  F  F46  1  0.21137616  0.33769336  0.50000000  1
  F  F47  1  0.78862384  0.66230664  0.50000000  1
  F  F48  1  0.00000000  0.50000000  0.50000000  1
  F  F49  1  0.50000000  0.00000000  0.50000000  1
  F  F50  1  0.00000000  0.00000000  0.85427454  1
  F  F51  1  0.50000000  0.50000000  0.14572546  1
  F  F52  1  0.00000000  0.00000000  0.14572546  1
  F  F53  1  0.50000000  0.50000000  0.85427454  1
  Li  Li54  1  0.76794955  0.34159122  0.42511159  1
  Li  Li55  1  -0.76794955  -0.34159122  0.42511159  1
  Li  Li56  1  -0.26794955  0.84159122  -0.42511159  1
  Li  Li57  1  1.26794955  0.15840878  -0.42511159  1
  Li  Li58  1  -0.76794955  -0.34159122  -0.42511159  1
  Li  Li59  1  0.76794955  0.34159122  -0.42511159  1
  Li  Li60  1  1.26794955  0.15840878  0.42511159  1
  Li  Li61  1  -0.26794955  0.84159122  0.42511159  1
  Li  Li62  1  0.30683028  0.25444539  0.07628625  1
  Li  Li63  1  0.69316972  0.74555461  0.07628625  1
  Li  Li64  1  0.19316972  0.75444539  0.92371375  1
  Li  Li65  1  0.80683028  0.24555461  0.92371375  1
  Li  Li66  1  0.69316972  0.74555461  0.92371375  1
  Li  Li67  1  0.30683028  0.25444539  0.92371375  1
  Li  Li68  1  0.80683028  0.24555461  0.07628625  1
  Li  Li69  1  0.19316972  0.75444539  0.07628625  1
  Li  Li70  1  0.00000000  0.50000000  0.00000000  1
  Li  Li71  1  0.50000000  0.00000000  0.00000000  1
  Li  Li72  1  0.00000000  0.00000000  0.50000000  1
  Li  Li73  1  0.50000000  0.50000000  0.50000000  1
  Li  Li74  1  0.58651586  0.53884671  0.61246642  1
  Li  Li75  1  0.41348414  0.46115329  0.61246642  1
  Li  Li76  1  0.91348414  0.03884671  0.38753358  1
  Li  Li77  1  0.08651586  0.96115329  0.38753358  1
  Li  Li78  1  0.41348414  0.46115329  0.38753358  1
  Li  Li79  1  0.58651586  0.53884671  0.38753358  1
  Li  Li80  1  0.08651586  0.96115329  0.61246642  1
  Li  Li81  1  0.91348414  0.03884671  0.61246642  1
  Li  Li82  1  0.09689883  0.57907865  0.89976166  1
  Li  Li83  1  0.90310117  0.42092135  0.89976166  1
  Li  Li84  1  0.40310117  0.07907865  0.10023834  1
  Li  Li85  1  0.59689883  0.92092135  0.10023834  1
  Li  Li86  1  0.90310117  0.42092135  0.10023834  1
  Li  Li87  1  0.09689883  0.57907865  0.10023834  1
  Li  Li88  1  0.59689883  0.92092135  0.89976166  1
  Li  Li89  1  0.40310117  0.07907865  0.89976166  1
  Li  Li90  1  0.42510701  0.94757379  0.50000000  1
  Li  Li91  1  0.57489299  0.05242621  0.50000000  1
  Li  Li92  1  0.07489299  0.44757379  0.50000000  1
  Li  Li93  1  0.92510701  0.55242621  0.50000000  1
  Li  Li94  1  0.56162439  0.87374641  0.36934244  1
  Li  Li95  1  0.43837561  0.12625359  0.36934244  1
  Li  Li96  1  0.93837561  0.37374641  0.63065756  1
  Li  Li97  1  0.06162439  0.62625359  0.63065756  1
  Li  Li98  1  0.43837561  0.12625359  0.63065756  1
  Li  Li99  1  0.56162439  0.87374641  0.63065756  1
  Li  Li100  1  0.06162439  0.62625359  0.36934244  1
  Li  Li101  1  0.93837561  0.37374641  0.36934244  1
  Li  Li102  1  0.00000000  0.00000000  0.00000000  1
  Li  Li103  1  0.50000000  0.50000000  0.00000000  1
  Li  Li104  1  0.14267384  0.18302306  -0.00000000  1
  Li  Li105  1  0.85732616  0.81697694  0.00000000  1
  Li  Li106  1  0.35732616  0.68302306  0.00000000  1
  Li  Li107  1  0.64267384  0.31697694  0.00000000  1
