# generated using pymatgen
data_LiF
_symmetry_space_group_name_H-M   'P 1'
_cell_length_a   13.72198688
_cell_length_b   13.72198688
_cell_length_c   4.88990262
_cell_angle_alpha   90.00000000
_cell_angle_beta   90.00000000
_cell_angle_gamma   120.00000000
_symmetry_Int_Tables_number   1
_chemical_formula_structural   LiF
_chemical_formula_sum   'Li22 F22'
_cell_volume   797.37908904
_cell_formula_units_Z   22
loop_
 _symmetry_equiv_pos_site_id
 _symmetry_equiv_pos_as_xyz
  1  'x, y, z'
loop_
 _atom_site_type_symbol
 _atom_site_label
 _atom_site_symmetry_multiplicity
 _atom_site_fract_x
 _atom_site_fract_y
 _atom_site_fract_z
 _atom_site_occupancy
  F  F0  1  0.85373713  0.00303642  0.20487229  1
  F  F1  1  0.99696358  0.85070071  0.20487229  1
  F  F2  1  0.14929929  0.14626287  0.20487229  1
  F  F3  1  0.99696358  0.14626287  0.79512771  1
  F  F4  1  0.14929929  0.00303642  0.79512771  1
  F  F5  1  0.85373713  0.85070071  0.79512771  1
  F  F6  1  0.73919989  0.26080011  -0.00000000  1
  F  F7  1  0.73919989  0.47839979  -0.00000000  1
  F  F8  1  0.52160021  0.26080011  -0.00000000  1
  F  F9  1  0.65558685  0.26539509  0.00356586  1
  F  F10  1  0.73460491  0.39019176  0.00356586  1
  F  F11  1  0.60980824  0.34441315  0.00356586  1
  F  F12  1  0.73460491  0.34441315  0.99643414  1
  F  F13  1  0.60980824  0.26539509  0.99643414  1
  F  F14  1  0.65558685  0.39019176  0.99643414  1
  F  F15  1  0.66666667  0.33333333  -0.00000000  1
  F  F16  1  0.57153996  0.25141357  0.39925009  1
  F  F17  1  0.74858643  0.32012640  0.39925009  1
  F  F18  1  0.67987360  0.42846004  0.39925009  1
  F  F19  1  0.74858643  0.42846004  0.60074991  1
  F  F20  1  0.67987360  0.25141357  0.60074991  1
  F  F21  1  0.57153996  0.32012640  0.60074991  1
  Li  Li22  1  0.66666667  0.33333333  0.63482166  1
  Li  Li23  1  0.66666667  0.33333333  0.36517834  1
  Li  Li24  1  0.87314222  0.36620964  0.37069527  1
  Li  Li25  1  -0.36620964  0.50693258  0.37069527  1
  Li  Li26  1  -0.50693258  -0.87314222  0.37069527  1
  Li  Li27  1  -0.36620964  -0.87314222  -0.37069527  1
  Li  Li28  1  -0.50693258  0.36620964  -0.37069527  1
  Li  Li29  1  0.87314222  0.50693258  -0.37069527  1
  Li  Li30  1  0.96698235  0.13508006  0.33960666  1
  Li  Li31  1  0.86491994  0.83190229  0.33960666  1
  Li  Li32  1  0.16809771  0.03301765  0.33960666  1
  Li  Li33  1  0.86491994  0.03301765  0.66039334  1
  Li  Li34  1  0.16809771  0.13508006  0.66039334  1
  Li  Li35  1  0.96698235  0.83190229  0.66039334  1
  Li  Li36  1  0.33333333  0.66666667  0.00000000  1
  Li  Li37  1  0.99406860  0.65543407  0.32622307  1
  Li  Li38  1  0.34456593  0.33863453  0.32622307  1
  Li  Li39  1  0.66136547  0.00593140  0.32622307  1
  Li  Li40  1  0.34456593  0.00593140  0.67377693  1
  Li  Li41  1  0.66136547  0.65543407  0.67377693  1
  Li  Li42  1  0.99406860  0.33863453  0.67377693  1
  Li  Li43  1  0.00000000  0.00000000  0.50000000  1
