# generated using pymatgen
data_LiF
_symmetry_space_group_name_H-M   'P 1'
_cell_length_a   5.95227197
_cell_length_b   5.95227197
_cell_length_c   30.53782145
_cell_angle_alpha   90.00000000
_cell_angle_beta   90.00000000
_cell_angle_gamma   120.00000000
_symmetry_Int_Tables_number   1
_chemical_formula_structural   LiF
_chemical_formula_sum   'Li36 F36'
_cell_volume   936.98840367
_cell_formula_units_Z   36
loop_
 _symmetry_equiv_pos_site_id
 _symmetry_equiv_pos_as_xyz
  1  'x, y, z'
loop_
 _atom_site_type_symbol
 _atom_site_label
 _atom_site_symmetry_multiplicity
 _atom_site_fract_x
 _atom_site_fract_y
 _atom_site_fract_z
 _atom_site_occupancy
  F  F0  1  0.33333333  0.66666667  0.20863033  1
  F  F1  1  0.66666667  0.33333333  0.70863033  1
  F  F2  1  0.66666667  0.33333333  0.79136967  1
  F  F3  1  0.33333333  0.66666667  0.29136967  1
  F  F4  1  0.29205086  0.56777155  0.27855099  1
  F  F5  1  -0.56777155  -0.27572069  0.27855099  1
  F  F6  1  0.27572069  -0.29205086  0.27855099  1
  F  F7  1  -0.29205086  -0.56777155  0.77855099  1
  F  F8  1  0.56777155  0.27572069  0.77855099  1
  F  F9  1  -0.27572069  0.29205086  0.77855099  1
  F  F10  1  -0.29205086  -0.56777155  -0.27855099  1
  F  F11  1  0.56777155  0.27572069  -0.27855099  1
  F  F12  1  -0.27572069  0.29205086  -0.27855099  1
  F  F13  1  0.29205086  0.56777155  0.22144901  1
  F  F14  1  -0.56777155  -0.27572069  0.22144901  1
  F  F15  1  0.27572069  -0.29205086  0.22144901  1
  F  F16  1  0.66620436  0.72320069  0.40063806  1
  F  F17  1  0.27679931  0.94300367  0.40063806  1
  F  F18  1  0.05699633  0.33379564  0.40063806  1
  F  F19  1  0.33379564  0.27679931  0.90063806  1
  F  F20  1  0.72320069  0.05699633  0.90063806  1
  F  F21  1  0.94300367  0.66620436  0.90063806  1
  F  F22  1  0.33379564  0.27679931  0.59936194  1
  F  F23  1  0.72320069  0.05699633  0.59936194  1
  F  F24  1  0.94300367  0.66620436  0.59936194  1
  F  F25  1  0.66620436  0.72320069  0.09936194  1
  F  F26  1  0.27679931  0.94300367  0.09936194  1
  F  F27  1  0.05699633  0.33379564  0.09936194  1
  F  F28  1  0.33333333  0.66666667  0.53898244  1
  F  F29  1  0.66666667  0.33333333  0.03898244  1
  F  F30  1  0.66666667  0.33333333  0.46101756  1
  F  F31  1  0.33333333  0.66666667  0.96101756  1
  F  F32  1  0.00000000  0.00000000  0.80324850  1
  F  F33  1  0.00000000  0.00000000  0.30324850  1
  F  F34  1  0.00000000  0.00000000  0.19675150  1
  F  F35  1  0.00000000  0.00000000  0.69675150  1
  Li  Li36  1  0.33333333  0.66666667  0.25000000  1
  Li  Li37  1  0.66666667  0.33333333  0.75000000  1
  Li  Li38  1  0.28093039  0.26909055  0.25000000  1
  Li  Li39  1  0.73090945  0.01183984  0.25000000  1
  Li  Li40  1  0.98816016  0.71906961  0.25000000  1
  Li  Li41  1  0.71906961  0.73090945  0.75000000  1
  Li  Li42  1  0.26909055  0.98816016  0.75000000  1
  Li  Li43  1  0.01183984  0.28093039  0.75000000  1
  Li  Li44  1  0.00000000  0.00000000  0.00000000  1
  Li  Li45  1  0.00000000  0.00000000  0.50000000  1
  Li  Li46  1  0.63765956  0.02196247  0.21084579  1
  Li  Li47  1  0.97803753  0.61569709  0.21084579  1
  Li  Li48  1  0.38430291  0.36234044  0.21084579  1
  Li  Li49  1  0.36234044  0.97803753  0.71084579  1
  Li  Li50  1  0.02196247  0.38430291  0.71084579  1
  Li  Li51  1  0.61569709  0.63765956  0.71084579  1
  Li  Li52  1  0.36234044  0.97803753  0.78915421  1
  Li  Li53  1  0.02196247  0.38430291  0.78915421  1
  Li  Li54  1  0.61569709  0.63765956  0.78915421  1
  Li  Li55  1  0.63765956  0.02196247  0.28915421  1
  Li  Li56  1  0.97803753  0.61569709  0.28915421  1
  Li  Li57  1  0.38430291  0.36234044  0.28915421  1
  Li  Li58  1  0.97148271  0.36331380  0.22742865  1
  Li  Li59  1  0.63668620  0.60816891  0.22742865  1
  Li  Li60  1  0.39183109  0.02851729  0.22742865  1
  Li  Li61  1  0.02851729  0.63668620  0.72742865  1
  Li  Li62  1  0.36331380  0.39183109  0.72742865  1
  Li  Li63  1  0.60816891  0.97148271  0.72742865  1
  Li  Li64  1  0.02851729  0.63668620  0.77257135  1
  Li  Li65  1  0.36331380  0.39183109  0.77257135  1
  Li  Li66  1  0.60816891  0.97148271  0.77257135  1
  Li  Li67  1  0.97148271  0.36331380  0.27257135  1
  Li  Li68  1  0.63668620  0.60816891  0.27257135  1
  Li  Li69  1  0.39183109  0.02851729  0.27257135  1
  Li  Li70  1  0.66666667  0.33333333  0.25000000  1
  Li  Li71  1  0.33333333  0.66666667  0.75000000  1
