# generated using pymatgen
data_LiF
_symmetry_space_group_name_H-M   'P 1'
_cell_length_a   3.87876715
_cell_length_b   3.87876715
_cell_length_c   28.78259482
_cell_angle_alpha   90.00000000
_cell_angle_beta   90.00000000
_cell_angle_gamma   120.00000000
_symmetry_Int_Tables_number   1
_chemical_formula_structural   LiF
_chemical_formula_sum   'Li16 F16'
_cell_volume   375.01444280
_cell_formula_units_Z   16
loop_
 _symmetry_equiv_pos_site_id
 _symmetry_equiv_pos_as_xyz
  1  'x, y, z'
loop_
 _atom_site_type_symbol
 _atom_site_label
 _atom_site_symmetry_multiplicity
 _atom_site_fract_x
 _atom_site_fract_y
 _atom_site_fract_z
 _atom_site_occupancy
  F  F0  1  0.85492234  0.91157053  0.85102147  1
  F  F1  1  0.08842947  0.94335182  0.85102147  1
  F  F2  1  0.05664818  0.14507766  0.85102147  1
  F  F3  1  0.08842947  0.14507766  0.14897853  1
  F  F4  1  0.05664818  0.91157053  0.14897853  1
  F  F5  1  0.85492234  0.94335182  0.14897853  1
  F  F6  1  0.04986287  0.92852334  0.29784572  1
  F  F7  1  0.07147666  0.12133953  0.29784572  1
  F  F8  1  0.87866047  0.95013713  0.29784572  1
  F  F9  1  0.07147666  0.95013713  0.70215428  1
  F  F10  1  0.87866047  0.92852334  0.70215428  1
  F  F11  1  0.04986287  0.12133953  0.70215428  1
  F  F12  1  0.15092021  0.84907979  0.00000000  1
  F  F13  1  0.15092021  0.30184041  0.00000000  1
  F  F14  1  0.69815959  0.84907979  0.00000000  1
  F  F15  1  0.00000000  0.00000000  0.00000000  1
  Li  Li16  1  0.66666667  0.33333333  -0.00000000  1
  Li  Li17  1  0.33333333  0.66666667  0.50000000  1
  Li  Li18  1  0.77704342  0.94172135  0.96034895  1
  Li  Li19  1  -0.94172135  -0.16467793  0.96034895  1
  Li  Li20  1  0.16467793  -0.77704342  0.96034895  1
  Li  Li21  1  -0.94172135  -0.77704342  -0.96034895  1
  Li  Li22  1  0.16467793  0.94172135  -0.96034895  1
  Li  Li23  1  0.77704342  -0.16467793  -0.96034895  1
  Li  Li24  1  0.66666667  0.33333333  0.50000000  1
  Li  Li25  1  0.00000000  0.00000000  0.50000000  1
  Li  Li26  1  0.59540066  0.48939325  0.87977357  1
  Li  Li27  1  0.51060675  0.10600741  0.87977357  1
  Li  Li28  1  0.89399259  0.40459934  0.87977357  1
  Li  Li29  1  0.51060675  0.40459934  0.12022643  1
  Li  Li30  1  0.89399259  0.48939325  0.12022643  1
  Li  Li31  1  0.59540066  0.10600741  0.12022643  1
