# generated using pymatgen
data_Li3YScTiF
_symmetry_space_group_name_H-M   'P 1'
_cell_length_a   3.15984761
_cell_length_b   3.11646610
_cell_length_c   5.72681526
_cell_angle_alpha   109.65503948
_cell_angle_beta   105.14595422
_cell_angle_gamma   110.25545546
_symmetry_Int_Tables_number   1
_chemical_formula_structural   Li3YScTiF
_chemical_formula_sum   'Li3 Y1 Sc1 Ti1 F1'
_cell_volume   45.04160454
_cell_formula_units_Z   1
loop_
 _symmetry_equiv_pos_site_id
 _symmetry_equiv_pos_as_xyz
  1  'x, y, z'
loop_
 _atom_site_type_symbol
 _atom_site_label
 _atom_site_symmetry_multiplicity
 _atom_site_fract_x
 _atom_site_fract_y
 _atom_site_fract_z
 _atom_site_occupancy
  F  F0  1  0.12500000  0.00000000  0.25000000  1
  Li  Li1  1  0.00000000  0.00000000  0.00000000  1
  Li  Li2  1  0.37500000  0.00000000  0.25000000  1
  Li  Li3  1  0.25000000  0.25000000  0.25000000  1
  Sc  Sc4  1  0.00000000  0.25000000  0.12500000  1
  Ti  Ti5  1  0.88524714  0.90374520  0.01753650  1
  Y  Y6  1  0.29858843  0.22500785  0.65501185  1
