# generated using pymatgen
data_LiF
_symmetry_space_group_name_H-M   'P 1'
_cell_length_a   10.60481865
_cell_length_b   11.00318136
_cell_length_c   12.90802195
_cell_angle_alpha   90.00000000
_cell_angle_beta   90.00000000
_cell_angle_gamma   90.00000000
_symmetry_Int_Tables_number   1
_chemical_formula_structural   LiF
_chemical_formula_sum   'Li66 F66'
_cell_volume   1506.19503965
_cell_formula_units_Z   66
loop_
 _symmetry_equiv_pos_site_id
 _symmetry_equiv_pos_as_xyz
  1  'x, y, z'
loop_
 _atom_site_type_symbol
 _atom_site_label
 _atom_site_symmetry_multiplicity
 _atom_site_fract_x
 _atom_site_fract_y
 _atom_site_fract_z
 _atom_site_occupancy
  F  F0  1  0.20165076  0.34082254  0.72415300  1
  F  F1  1  0.79834924  0.65917746  0.72415300  1
  F  F2  1  0.29834924  0.84082254  0.27584700  1
  F  F3  1  0.70165076  0.15917746  0.27584700  1
  F  F4  1  0.79834924  0.65917746  0.27584700  1
  F  F5  1  0.20165076  0.34082254  0.27584700  1
  F  F6  1  0.70165076  0.15917746  0.72415300  1
  F  F7  1  0.29834924  0.84082254  0.72415300  1
  F  F8  1  0.32157519  0.79070378  0.87065048  1
  F  F9  1  0.67842481  0.20929622  0.87065048  1
  F  F10  1  0.17842481  0.29070378  0.12934952  1
  F  F11  1  0.82157519  0.70929622  0.12934952  1
  F  F12  1  0.67842481  0.20929622  0.12934952  1
  F  F13  1  0.32157519  0.79070378  0.12934952  1
  F  F14  1  0.82157519  0.70929622  0.87065048  1
  F  F15  1  0.17842481  0.29070378  0.87065048  1
  F  F16  1  0.78927724  0.11720101  0.58086478  1
  F  F17  1  0.21072276  0.88279899  0.58086478  1
  F  F18  1  0.71072276  0.61720101  0.41913522  1
  F  F19  1  0.28927724  0.38279899  0.41913522  1
  F  F20  1  0.21072276  0.88279899  0.41913522  1
  F  F21  1  0.78927724  0.11720101  0.41913522  1
  F  F22  1  0.28927724  0.38279899  0.58086478  1
  F  F23  1  0.71072276  0.61720101  0.58086478  1
  F  F24  1  0.00000000  0.00000000  0.50000000  1
  F  F25  1  0.50000000  0.50000000  0.50000000  1
  F  F26  1  0.19148912  0.22216558  0.18350955  1
  F  F27  1  0.80851088  0.77783442  0.18350955  1
  F  F28  1  0.30851088  0.72216558  0.81649045  1
  F  F29  1  0.69148912  0.27783442  0.81649045  1
  F  F30  1  0.80851088  0.77783442  0.81649045  1
  F  F31  1  0.19148912  0.22216558  0.81649045  1
  F  F32  1  0.69148912  0.27783442  0.18350955  1
  F  F33  1  0.30851088  0.72216558  0.18350955  1
  F  F34  1  0.56018949  0.30529404  0.66173458  1
  F  F35  1  0.43981051  0.69470596  0.66173458  1
  F  F36  1  0.93981051  0.80529404  0.33826542  1
  F  F37  1  0.06018949  0.19470596  0.33826542  1
  F  F38  1  0.43981051  0.69470596  0.33826542  1
  F  F39  1  0.56018949  0.30529404  0.33826542  1
  F  F40  1  0.06018949  0.19470596  0.66173458  1
  F  F41  1  0.93981051  0.80529404  0.66173458  1
  F  F42  1  0.07119084  0.45513763  0.18081790  1
  F  F43  1  0.92880916  0.54486237  0.18081790  1
  F  F44  1  0.42880916  0.95513763  0.81918210  1
  F  F45  1  0.57119084  0.04486237  0.81918210  1
  F  F46  1  0.92880916  0.54486237  0.81918210  1
  F  F47  1  0.07119084  0.45513763  0.81918210  1
  F  F48  1  0.57119084  0.04486237  0.18081790  1
  F  F49  1  0.42880916  0.95513763  0.18081790  1
  F  F50  1  0.61104534  0.00382458  0.20959135  1
  F  F51  1  0.38895466  0.99617542  0.20959135  1
  F  F52  1  0.88895466  0.50382458  0.79040865  1
  F  F53  1  0.11104534  0.49617542  0.79040865  1
  F  F54  1  0.38895466  0.99617542  0.79040865  1
  F  F55  1  0.61104534  0.00382458  0.79040865  1
  F  F56  1  0.11104534  0.49617542  0.20959135  1
  F  F57  1  0.88895466  0.50382458  0.20959135  1
  F  F58  1  0.46446463  0.72765345  0.50000000  1
  F  F59  1  0.53553537  0.27234655  0.50000000  1
  F  F60  1  0.03553537  0.22765345  0.50000000  1
  F  F61  1  0.96446463  0.77234655  0.50000000  1
  F  F62  1  0.12778887  0.39641350  0.50000000  1
  F  F63  1  0.87221113  0.60358650  0.50000000  1
  F  F64  1  0.37221113  0.89641350  0.50000000  1
  F  F65  1  0.62778887  0.10358650  0.50000000  1
  Li  Li66  1  0.81366852  0.52970298  0.82042602  1
  Li  Li67  1  -0.81366852  -0.52970298  0.82042602  1
  Li  Li68  1  -0.31366852  1.02970298  -0.82042602  1
  Li  Li69  1  1.31366852  -0.02970298  -0.82042602  1
  Li  Li70  1  -0.81366852  -0.52970298  -0.82042602  1
  Li  Li71  1  0.81366852  0.52970298  -0.82042602  1
  Li  Li72  1  1.31366852  -0.02970298  0.82042602  1
  Li  Li73  1  -0.31366852  1.02970298  0.82042602  1
  Li  Li74  1  0.19665924  0.03292135  0.65538656  1
  Li  Li75  1  0.80334076  0.96707865  0.65538656  1
  Li  Li76  1  0.30334076  0.53292135  0.34461344  1
  Li  Li77  1  0.69665924  0.46707865  0.34461344  1
  Li  Li78  1  0.80334076  0.96707865  0.34461344  1
  Li  Li79  1  0.19665924  0.03292135  0.34461344  1
  Li  Li80  1  0.69665924  0.46707865  0.65538656  1
  Li  Li81  1  0.30334076  0.53292135  0.65538656  1
  Li  Li82  1  0.31657041  0.35939751  0.82104145  1
  Li  Li83  1  0.68342959  0.64060249  0.82104145  1
  Li  Li84  1  0.18342959  0.85939751  0.17895855  1
  Li  Li85  1  0.81657041  0.14060249  0.17895855  1
  Li  Li86  1  0.68342959  0.64060249  0.17895855  1
  Li  Li87  1  0.31657041  0.35939751  0.17895855  1
  Li  Li88  1  0.81657041  0.14060249  0.82104145  1
  Li  Li89  1  0.18342959  0.85939751  0.82104145  1
  Li  Li90  1  0.57427450  0.31185531  0.88634547  1
  Li  Li91  1  0.42572550  0.68814469  0.88634547  1
  Li  Li92  1  0.92572550  0.81185531  0.11365453  1
  Li  Li93  1  0.07427450  0.18814469  0.11365453  1
  Li  Li94  1  0.42572550  0.68814469  0.11365453  1
  Li  Li95  1  0.57427450  0.31185531  0.11365453  1
  Li  Li96  1  0.07427450  0.18814469  0.88634547  1
  Li  Li97  1  0.92572550  0.81185531  0.88634547  1
  Li  Li98  1  0.00000000  0.00000000  0.00000000  1
  Li  Li99  1  0.50000000  0.50000000  0.00000000  1
  Li  Li100  1  0.93723301  0.69539550  0.57674155  1
  Li  Li101  1  0.06276699  0.30460450  0.57674155  1
  Li  Li102  1  0.56276699  0.19539550  0.42325845  1
  Li  Li103  1  0.43723301  0.80460450  0.42325845  1
  Li  Li104  1  0.06276699  0.30460450  0.42325845  1
  Li  Li105  1  0.93723301  0.69539550  0.42325845  1
  Li  Li106  1  0.43723301  0.80460450  0.57674155  1
  Li  Li107  1  0.56276699  0.19539550  0.57674155  1
  Li  Li108  1  0.00000000  0.50000000  0.50000000  1
  Li  Li109  1  0.50000000  0.00000000  0.50000000  1
  Li  Li110  1  0.98038978  0.09887476  0.86596853  1
  Li  Li111  1  0.01961022  0.90112524  0.86596853  1
  Li  Li112  1  0.51961022  0.59887476  0.13403147  1
  Li  Li113  1  0.48038978  0.40112524  0.13403147  1
  Li  Li114  1  0.01961022  0.90112524  0.13403147  1
  Li  Li115  1  0.98038978  0.09887476  0.13403147  1
  Li  Li116  1  0.48038978  0.40112524  0.86596853  1
  Li  Li117  1  0.51961022  0.59887476  0.86596853  1
  Li  Li118  1  0.00000000  0.50000000  0.00000000  1
  Li  Li119  1  0.50000000  0.00000000  0.00000000  1
  Li  Li120  1  0.19113048  0.57644843  0.75063874  1
  Li  Li121  1  0.80886952  0.42355157  0.75063874  1
  Li  Li122  1  0.30886952  0.07644843  0.24936126  1
  Li  Li123  1  0.69113048  0.92355157  0.24936126  1
  Li  Li124  1  0.80886952  0.42355157  0.24936126  1
  Li  Li125  1  0.19113048  0.57644843  0.24936126  1
  Li  Li126  1  0.69113048  0.92355157  0.75063874  1
  Li  Li127  1  0.30886952  0.07644843  0.75063874  1
  Li  Li128  1  0.00000000  0.50000000  0.65062178  1
  Li  Li129  1  0.50000000  0.00000000  0.34937822  1
  Li  Li130  1  0.00000000  0.50000000  0.34937822  1
  Li  Li131  1  0.50000000  0.00000000  0.65062178  1
