# generated using pymatgen
data_LiF
_symmetry_space_group_name_H-M   'P 1'
_cell_length_a   9.00893858
_cell_length_b   14.33386421
_cell_length_c   7.20096157
_cell_angle_alpha   90.00000000
_cell_angle_beta   90.00000000
_cell_angle_gamma   90.00000000
_symmetry_Int_Tables_number   1
_chemical_formula_structural   LiF
_chemical_formula_sum   'Li32 F32'
_cell_volume   929.88106656
_cell_formula_units_Z   32
loop_
 _symmetry_equiv_pos_site_id
 _symmetry_equiv_pos_as_xyz
  1  'x, y, z'
loop_
 _atom_site_type_symbol
 _atom_site_label
 _atom_site_symmetry_multiplicity
 _atom_site_fract_x
 _atom_site_fract_y
 _atom_site_fract_z
 _atom_site_occupancy
  F  F0  1  0.37399638  0.25000000  0.00831638  1
  F  F1  1  0.12600362  0.75000000  0.50831638  1
  F  F2  1  0.62600362  0.75000000  0.99168362  1
  F  F3  1  0.87399638  0.25000000  0.49168362  1
  F  F4  1  0.26055998  0.41827217  0.42908733  1
  F  F5  1  0.23944002  0.58172783  0.92908733  1
  F  F6  1  0.73944002  0.91827217  0.57091267  1
  F  F7  1  0.76055998  0.08172783  0.07091267  1
  F  F8  1  0.73944002  0.58172783  0.57091267  1
  F  F9  1  0.76055998  0.41827217  0.07091267  1
  F  F10  1  0.26055998  0.08172783  0.42908733  1
  F  F11  1  0.23944002  0.91827217  0.92908733  1
  F  F12  1  0.96026898  0.83877860  0.28702946  1
  F  F13  1  0.53973102  0.16122140  0.78702946  1
  F  F14  1  0.03973102  0.33877860  0.71297054  1
  F  F15  1  0.46026898  0.66122140  0.21297054  1
  F  F16  1  0.03973102  0.16122140  0.71297054  1
  F  F17  1  0.46026898  0.83877860  0.21297054  1
  F  F18  1  0.96026898  0.66122140  0.28702946  1
  F  F19  1  0.53973102  0.33877860  0.78702946  1
  F  F20  1  0.36932155  0.49920393  0.49947796  1
  F  F21  1  0.13067845  0.50079607  0.99947796  1
  F  F22  1  0.63067845  0.99920393  0.50052204  1
  F  F23  1  0.86932155  0.00079607  0.00052204  1
  F  F24  1  0.63067845  0.50079607  0.50052204  1
  F  F25  1  0.86932155  0.49920393  0.00052204  1
  F  F26  1  0.36932155  0.00079607  0.49947796  1
  F  F27  1  0.13067845  0.99920393  0.99947796  1
  F  F28  1  0.68160975  0.25000000  0.44498182  1
  F  F29  1  0.81839025  0.75000000  0.94498182  1
  F  F30  1  0.31839025  0.75000000  0.55501818  1
  F  F31  1  0.18160975  0.25000000  0.05501818  1
  Li  Li32  1  0.00000000  0.00000000  0.00000000  1
  Li  Li33  1  0.50000000  0.00000000  0.50000000  1
  Li  Li34  1  0.00000000  0.50000000  0.00000000  1
  Li  Li35  1  0.50000000  0.50000000  0.50000000  1
  Li  Li36  1  0.03149684  0.25000000  0.58204369  1
  Li  Li37  1  0.46850316  0.75000000  0.08204369  1
  Li  Li38  1  0.96850316  0.75000000  0.41795631  1
  Li  Li39  1  0.53149684  0.25000000  0.91795631  1
  Li  Li40  1  0.01268738  0.48833212  0.67583644  1
  Li  Li41  1  0.48731262  -0.48833212  1.17583644  1
  Li  Li42  1  -0.01268738  0.98833212  -0.67583644  1
  Li  Li43  1  0.51268738  0.01166788  -0.17583644  1
  Li  Li44  1  -0.01268738  -0.48833212  -0.67583644  1
  Li  Li45  1  0.51268738  0.48833212  -0.17583644  1
  Li  Li46  1  0.01268738  0.01166788  0.67583644  1
  Li  Li47  1  0.48731262  0.98833212  1.17583644  1
  Li  Li48  1  0.34971482  0.38120806  0.65497271  1
  Li  Li49  1  0.15028518  0.61879194  0.15497271  1
  Li  Li50  1  0.65028518  0.88120806  0.34502729  1
  Li  Li51  1  0.84971482  0.11879194  0.84502729  1
  Li  Li52  1  0.65028518  0.61879194  0.34502729  1
  Li  Li53  1  0.84971482  0.38120806  0.84502729  1
  Li  Li54  1  0.34971482  0.11879194  0.65497271  1
  Li  Li55  1  0.15028518  0.88120806  0.15497271  1
  Li  Li56  1  0.86439753  0.25000000  0.65094031  1
  Li  Li57  1  0.63560247  0.75000000  0.15094031  1
  Li  Li58  1  0.13560247  0.75000000  0.34905969  1
  Li  Li59  1  0.36439753  0.25000000  0.84905969  1
  Li  Li60  1  0.00000000  0.00000000  0.50000000  1
  Li  Li61  1  0.50000000  0.00000000  0.00000000  1
  Li  Li62  1  0.00000000  0.50000000  0.50000000  1
  Li  Li63  1  0.50000000  0.50000000  0.00000000  1
