# generated using pymatgen
data_LiF
_symmetry_space_group_name_H-M   'P 1'
_cell_length_a   9.93712340
_cell_length_b   9.93712340
_cell_length_c   10.62020174
_cell_angle_alpha   90.00000000
_cell_angle_beta   90.00000000
_cell_angle_gamma   90.00000000
_symmetry_Int_Tables_number   1
_chemical_formula_structural   LiF
_chemical_formula_sum   'Li64 F64'
_cell_volume   1048.70691607
_cell_formula_units_Z   64
loop_
 _symmetry_equiv_pos_site_id
 _symmetry_equiv_pos_as_xyz
  1  'x, y, z'
loop_
 _atom_site_type_symbol
 _atom_site_label
 _atom_site_symmetry_multiplicity
 _atom_site_fract_x
 _atom_site_fract_y
 _atom_site_fract_z
 _atom_site_occupancy
  F  F0  1  0.00000000  0.25000000  0.12500000  1
  F  F1  1  0.00000000  0.75000000  0.37500000  1
  F  F2  1  0.00000000  0.75000000  0.87500000  1
  F  F3  1  0.00000000  0.25000000  0.62500000  1
  F  F4  1  0.50000000  0.75000000  0.62500000  1
  F  F5  1  0.50000000  0.25000000  0.87500000  1
  F  F6  1  0.50000000  0.25000000  0.37500000  1
  F  F7  1  0.50000000  0.75000000  0.12500000  1
  F  F8  1  0.19604683  0.00000000  0.25000000  1
  F  F9  1  0.30395317  0.00000000  0.75000000  1
  F  F10  1  0.25000000  0.94604683  0.50000000  1
  F  F11  1  0.25000000  0.05395317  -0.00000000  1
  F  F12  1  0.80395317  0.00000000  0.75000000  1
  F  F13  1  0.69604683  0.00000000  0.25000000  1
  F  F14  1  0.75000000  0.05395317  0.50000000  1
  F  F15  1  0.75000000  0.94604683  -0.00000000  1
  F  F16  1  0.69604683  0.50000000  0.75000000  1
  F  F17  1  0.80395317  0.50000000  0.25000000  1
  F  F18  1  0.75000000  0.44604683  -0.00000000  1
  F  F19  1  0.75000000  0.55395317  0.50000000  1
  F  F20  1  0.30395317  0.50000000  0.25000000  1
  F  F21  1  0.19604683  0.50000000  0.75000000  1
  F  F22  1  0.25000000  0.55395317  0.00000000  1
  F  F23  1  0.25000000  0.44604683  0.50000000  1
  F  F24  1  0.22755407  0.83776749  0.60003932  1
  F  F25  1  0.27244593  -0.83776749  1.10003932  1
  F  F26  1  -0.58776749  0.97755407  0.85003932  1
  F  F27  1  1.08776749  0.02244593  1.35003932  1
  F  F28  1  0.27244593  0.83776749  -0.60003932  1
  F  F29  1  0.22755407  -0.83776749  -0.10003932  1
  F  F30  1  1.08776749  0.97755407  0.14996068  1
  F  F31  1  -0.58776749  0.02244593  -0.35003932  1
  F  F32  1  -0.22755407  -0.83776749  -0.60003932  1
  F  F33  1  0.72755407  0.83776749  -0.10003932  1
  F  F34  1  1.58776749  0.02244593  0.14996068  1
  F  F35  1  -0.08776749  0.97755407  -0.35003932  1
  F  F36  1  0.72755407  -0.83776749  0.60003932  1
  F  F37  1  -0.22755407  0.83776749  1.10003932  1
  F  F38  1  -0.08776749  0.02244593  0.85003932  1
  F  F39  1  1.58776749  0.97755407  1.35003932  1
  F  F40  1  0.72755407  1.33776749  1.10003932  1
  F  F41  1  0.77244593  -0.33776749  1.60003932  1
  F  F42  1  -0.08776749  1.47755407  1.35003932  1
  F  F43  1  1.58776749  0.52244593  1.85003932  1
  F  F44  1  0.77244593  1.33776749  -0.10003932  1
  F  F45  1  0.72755407  -0.33776749  0.39996068  1
  F  F46  1  1.58776749  1.47755407  0.64996068  1
  F  F47  1  -0.08776749  0.52244593  0.14996068  1
  F  F48  1  0.27244593  -0.33776749  -0.10003932  1
  F  F49  1  1.22755407  1.33776749  0.39996068  1
  F  F50  1  2.08776749  0.52244593  0.64996068  1
  F  F51  1  0.41223251  1.47755407  0.14996068  1
  F  F52  1  1.22755407  -0.33776749  1.10003932  1
  F  F53  1  0.27244593  1.33776749  1.60003932  1
  F  F54  1  0.41223251  0.52244593  1.35003932  1
  F  F55  1  2.08776749  1.47755407  1.85003932  1
  F  F56  1  0.00000000  0.25000000  0.37500000  1
  F  F57  1  0.00000000  0.75000000  0.62500000  1
  F  F58  1  0.50000000  0.25000000  0.62500000  1
  F  F59  1  0.50000000  0.75000000  0.37500000  1
  F  F60  1  0.50000000  0.75000000  0.87500000  1
  F  F61  1  0.50000000  0.25000000  0.12500000  1
  F  F62  1  0.00000000  0.75000000  0.12500000  1
  F  F63  1  0.00000000  0.25000000  0.87500000  1
  Li  Li64  1  0.34255511  0.00000000  0.25000000  1
  Li  Li65  1  0.15744489  0.00000000  0.75000000  1
  Li  Li66  1  0.25000000  0.09255511  0.50000000  1
  Li  Li67  1  0.25000000  0.90744489  0.00000000  1
  Li  Li68  1  0.65744489  0.00000000  0.75000000  1
  Li  Li69  1  0.84255511  0.00000000  0.25000000  1
  Li  Li70  1  0.75000000  0.90744489  0.50000000  1
  Li  Li71  1  0.75000000  0.09255511  -0.00000000  1
  Li  Li72  1  0.84255511  0.50000000  0.75000000  1
  Li  Li73  1  0.65744489  0.50000000  0.25000000  1
  Li  Li74  1  0.75000000  0.59255511  -0.00000000  1
  Li  Li75  1  0.75000000  0.40744489  0.50000000  1
  Li  Li76  1  0.15744489  0.50000000  0.25000000  1
  Li  Li77  1  0.34255511  0.50000000  0.75000000  1
  Li  Li78  1  0.25000000  0.40744489  0.00000000  1
  Li  Li79  1  0.25000000  0.59255511  0.50000000  1
  Li  Li80  1  0.05690159  0.63525051  0.64218752  1
  Li  Li81  1  0.44309841  0.36474949  0.14218752  1
  Li  Li82  1  0.61474949  0.80690159  0.89218752  1
  Li  Li83  1  0.88525051  0.19309841  0.39218752  1
  Li  Li84  1  0.44309841  0.63525051  0.35781248  1
  Li  Li85  1  0.05690159  0.36474949  0.85781248  1
  Li  Li86  1  0.88525051  0.80690159  0.10781248  1
  Li  Li87  1  0.61474949  0.19309841  0.60781248  1
  Li  Li88  1  0.94309841  0.36474949  0.35781248  1
  Li  Li89  1  0.55690159  0.63525051  0.85781248  1
  Li  Li90  1  0.38525051  0.19309841  0.10781248  1
  Li  Li91  1  0.11474949  0.80690159  0.60781248  1
  Li  Li92  1  0.55690159  0.36474949  0.64218752  1
  Li  Li93  1  0.94309841  0.63525051  0.14218752  1
  Li  Li94  1  0.11474949  0.19309841  0.89218752  1
  Li  Li95  1  0.38525051  0.80690159  0.39218752  1
  Li  Li96  1  0.55690159  0.13525051  0.14218752  1
  Li  Li97  1  0.94309841  0.86474949  0.64218752  1
  Li  Li98  1  0.11474949  0.30690159  0.39218752  1
  Li  Li99  1  0.38525051  0.69309841  0.89218752  1
  Li  Li100  1  0.94309841  0.13525051  0.85781248  1
  Li  Li101  1  0.55690159  0.86474949  0.35781248  1
  Li  Li102  1  0.38525051  0.30690159  0.60781248  1
  Li  Li103  1  0.11474949  0.69309841  0.10781248  1
  Li  Li104  1  0.44309841  0.86474949  0.85781248  1
  Li  Li105  1  0.05690159  0.13525051  0.35781248  1
  Li  Li106  1  0.88525051  0.69309841  0.60781248  1
  Li  Li107  1  0.61474949  0.30690159  0.10781248  1
  Li  Li108  1  0.05690159  0.86474949  0.14218752  1
  Li  Li109  1  0.44309841  0.13525051  0.64218752  1
  Li  Li110  1  0.61474949  0.69309841  0.39218752  1
  Li  Li111  1  0.88525051  0.30690159  0.89218752  1
  Li  Li112  1  0.00000000  0.25000000  0.73661736  1
  Li  Li113  1  0.00000000  0.75000000  0.98661736  1
  Li  Li114  1  0.50000000  0.25000000  0.26338264  1
  Li  Li115  1  0.50000000  0.75000000  0.01338264  1
  Li  Li116  1  0.00000000  0.75000000  0.26338264  1
  Li  Li117  1  0.00000000  0.25000000  0.01338264  1
  Li  Li118  1  0.50000000  0.75000000  0.73661736  1
  Li  Li119  1  0.50000000  0.25000000  0.98661736  1
  Li  Li120  1  0.50000000  0.75000000  0.23661736  1
  Li  Li121  1  0.50000000  0.25000000  0.48661736  1
  Li  Li122  1  0.00000000  0.75000000  0.76338264  1
  Li  Li123  1  0.00000000  0.25000000  0.51338264  1
  Li  Li124  1  0.50000000  0.25000000  0.76338264  1
  Li  Li125  1  0.50000000  0.75000000  0.51338264  1
  Li  Li126  1  0.00000000  0.25000000  0.23661736  1
  Li  Li127  1  0.00000000  0.75000000  0.48661736  1
