# generated using pymatgen
data_LiF
_symmetry_space_group_name_H-M   'P 1'
_cell_length_a   9.28483187
_cell_length_b   9.28483187
_cell_length_c   14.19977448
_cell_angle_alpha   90.00000000
_cell_angle_beta   90.00000000
_cell_angle_gamma   120.00000000
_symmetry_Int_Tables_number   1
_chemical_formula_structural   LiF
_chemical_formula_sum   'Li38 F38'
_cell_volume   1060.13254435
_cell_formula_units_Z   38
loop_
 _symmetry_equiv_pos_site_id
 _symmetry_equiv_pos_as_xyz
  1  'x, y, z'
loop_
 _atom_site_type_symbol
 _atom_site_label
 _atom_site_symmetry_multiplicity
 _atom_site_fract_x
 _atom_site_fract_y
 _atom_site_fract_z
 _atom_site_occupancy
  F  F0  1  0.33333333  0.66666667  0.44942587  1
  F  F1  1  0.33333333  0.66666667  0.55057413  1
  F  F2  1  0.66666667  0.33333333  0.00000000  1
  F  F3  1  0.20446093  0.17706984  0.65678789  1
  F  F4  1  0.82293016  0.02739109  0.65678789  1
  F  F5  1  0.97260891  0.79553907  0.65678789  1
  F  F6  1  0.82293016  0.79553907  0.34321211  1
  F  F7  1  0.97260891  0.17706984  0.34321211  1
  F  F8  1  0.20446093  0.02739109  0.34321211  1
  F  F9  1  0.66916364  0.57958172  0.87280475  1
  F  F10  1  0.42041828  0.08958192  0.87280475  1
  F  F11  1  0.91041808  0.33083636  0.87280475  1
  F  F12  1  0.42041828  0.33083636  0.12719525  1
  F  F13  1  0.91041808  0.57958172  0.12719525  1
  F  F14  1  0.66916364  0.08958192  0.12719525  1
  F  F15  1  0.39632630  0.52087791  0.98107563  1
  F  F16  1  0.47912209  0.87544839  0.98107563  1
  F  F17  1  0.12455161  0.60367370  0.98107563  1
  F  F18  1  0.47912209  0.60367370  0.01892437  1
  F  F19  1  0.12455161  0.52087791  0.01892437  1
  F  F20  1  0.39632630  0.87544839  0.01892437  1
  F  F21  1  0.97291111  0.15972331  0.43641757  1
  F  F22  1  0.84027669  0.81318780  0.43641757  1
  F  F23  1  0.18681220  0.02708889  0.43641757  1
  F  F24  1  0.84027669  0.02708889  0.56358243  1
  F  F25  1  0.18681220  0.15972331  0.56358243  1
  F  F26  1  0.97291111  0.81318780  0.56358243  1
  F  F27  1  0.38599702  0.77765311  0.26454872  1
  F  F28  1  0.22234689  0.60834391  0.26454872  1
  F  F29  1  0.39165609  0.61400298  0.26454872  1
  F  F30  1  0.22234689  0.61400298  0.73545128  1
  F  F31  1  0.39165609  0.77765311  0.73545128  1
  F  F32  1  0.38599702  0.60834391  0.73545128  1
  F  F33  1  0.33333333  0.66666667  0.00000000  1
  F  F34  1  0.00000000  0.00000000  0.53443865  1
  F  F35  1  0.00000000  0.00000000  0.46556135  1
  F  F36  1  0.66666667  0.33333333  0.36392887  1
  F  F37  1  0.66666667  0.33333333  0.63607113  1
  Li  Li38  1  0.45777875  0.59618629  0.17003178  1
  Li  Li39  1  -0.59618629  -0.13840755  0.17003178  1
  Li  Li40  1  0.13840755  -0.45777875  0.17003178  1
  Li  Li41  1  -0.59618629  -0.45777875  -0.17003178  1
  Li  Li42  1  0.13840755  0.59618629  -0.17003178  1
  Li  Li43  1  0.45777875  -0.13840755  -0.17003178  1
  Li  Li44  1  0.25929272  0.41929297  0.53669702  1
  Li  Li45  1  0.58070703  0.83999975  0.53669702  1
  Li  Li46  1  0.16000025  0.74070728  0.53669702  1
  Li  Li47  1  0.58070703  0.74070728  0.46330298  1
  Li  Li48  1  0.16000025  0.41929297  0.46330298  1
  Li  Li49  1  0.25929272  0.83999975  0.46330298  1
  Li  Li50  1  0.88397939  0.94965361  0.68003067  1
  Li  Li51  1  0.05034639  0.93432577  0.68003067  1
  Li  Li52  1  0.06567423  0.11602061  0.68003067  1
  Li  Li53  1  0.05034639  0.11602061  0.31996933  1
  Li  Li54  1  0.06567423  0.94965361  0.31996933  1
  Li  Li55  1  0.88397939  0.93432577  0.31996933  1
  Li  Li56  1  0.92295763  0.34541844  0.53029346  1
  Li  Li57  1  0.65458156  0.57753919  0.53029346  1
  Li  Li58  1  0.42246081  0.07704237  0.53029346  1
  Li  Li59  1  0.65458156  0.07704237  0.46970654  1
  Li  Li60  1  0.42246081  0.34541844  0.46970654  1
  Li  Li61  1  0.92295763  0.57753919  0.46970654  1
  Li  Li62  1  0.14152175  0.88008087  0.40560407  1
  Li  Li63  1  0.11991913  0.26144088  0.40560407  1
  Li  Li64  1  0.73855912  0.85847825  0.40560407  1
  Li  Li65  1  0.11991913  0.85847825  0.59439593  1
  Li  Li66  1  0.73855912  0.88008087  0.59439593  1
  Li  Li67  1  0.14152175  0.26144088  0.59439593  1
  Li  Li68  1  0.79446370  0.17722422  0.75577048  1
  Li  Li69  1  0.82277578  0.61723948  0.75577048  1
  Li  Li70  1  0.38276052  0.20553630  0.75577048  1
  Li  Li71  1  0.82277578  0.20553630  0.24422952  1
  Li  Li72  1  0.38276052  0.17722422  0.24422952  1
  Li  Li73  1  0.79446370  0.61723948  0.24422952  1
  Li  Li74  1  0.00000000  0.00000000  0.18966554  1
  Li  Li75  1  0.00000000  0.00000000  0.81033446  1
