# generated using pymatgen
data_Li4YF
_symmetry_space_group_name_H-M   'P 1'
_cell_length_a   3.32971943
_cell_length_b   3.19638200
_cell_length_c   5.33555680
_cell_angle_alpha   104.43333788
_cell_angle_beta   105.53790238
_cell_angle_gamma   111.30488355
_symmetry_Int_Tables_number   1
_chemical_formula_structural   Li4YF
_chemical_formula_sum   'Li4 Y1 F1'
_cell_volume   47.01945410
_cell_formula_units_Z   1
loop_
 _symmetry_equiv_pos_site_id
 _symmetry_equiv_pos_as_xyz
  1  'x, y, z'
loop_
 _atom_site_type_symbol
 _atom_site_label
 _atom_site_symmetry_multiplicity
 _atom_site_fract_x
 _atom_site_fract_y
 _atom_site_fract_z
 _atom_site_occupancy
  F  F0  1  0.12500000  0.12500000  0.12500000  1
  Li  Li1  1  0.50000000  0.50000000  0.50000000  1
  Li  Li2  1  0.25000000  0.25000000  0.25000000  1
  Li  Li3  1  0.75000000  0.75000000  0.75000000  1
  Li  Li4  1  0.09856216  0.32439672  0.39429129  1
  Y  Y5  1  0.49473629  0.94579171  0.18200055  1
