# generated using pymatgen
data_LiYPSe
_symmetry_space_group_name_H-M   'P 1'
_cell_length_a   5.71349098
_cell_length_b   5.89855160
_cell_length_c   7.27607989
_cell_angle_alpha   93.49277539
_cell_angle_beta   97.60653866
_cell_angle_gamma   104.02909055
_symmetry_Int_Tables_number   1
_chemical_formula_structural   LiYPSe
_chemical_formula_sum   'Li2 Y2 P2 Se2'
_cell_volume   234.70047342
_cell_formula_units_Z   2
loop_
 _symmetry_equiv_pos_site_id
 _symmetry_equiv_pos_as_xyz
  1  'x, y, z'
loop_
 _atom_site_type_symbol
 _atom_site_label
 _atom_site_symmetry_multiplicity
 _atom_site_fract_x
 _atom_site_fract_y
 _atom_site_fract_z
 _atom_site_occupancy
  Y  Y0  1  0.00000000  0.00000000  0.00000000  1
  Y  Y1  1  0.33300000  0.66700000  0.25000000  1
  P  P2  1  0.66700000  0.33300000  0.50000000  1
  P  P3  1  0.00000000  0.00000000  0.75000000  1
  Se  Se4  1  0.23888918  0.50293996  0.06241181  1
  Se  Se5  1  0.87638812  0.83364411  0.71270148  1
  Li  Li6  1  0.84172811  0.57490251  0.69626256  1
  Li  Li7  1  0.24401101  0.93519055  0.04104209  1
