# generated using pymatgen
data_LiF
_symmetry_space_group_name_H-M   'P 1'
_cell_length_a   10.27906674
_cell_length_b   10.27906674
_cell_length_c   7.71362263
_cell_angle_alpha   90.00000000
_cell_angle_beta   90.00000000
_cell_angle_gamma   120.00000000
_symmetry_Int_Tables_number   1
_chemical_formula_structural   LiF
_chemical_formula_sum   'Li26 F26'
_cell_volume   705.82395162
_cell_formula_units_Z   26
loop_
 _symmetry_equiv_pos_site_id
 _symmetry_equiv_pos_as_xyz
  1  'x, y, z'
loop_
 _atom_site_type_symbol
 _atom_site_label
 _atom_site_symmetry_multiplicity
 _atom_site_fract_x
 _atom_site_fract_y
 _atom_site_fract_z
 _atom_site_occupancy
  F  F0  1  0.27071886  0.44576433  0.11180532  1
  F  F1  1  0.55423567  0.82495453  0.11180532  1
  F  F2  1  0.17504547  0.72928114  0.11180532  1
  F  F3  1  0.55423567  0.72928114  0.88819468  1
  F  F4  1  0.17504547  0.44576433  0.88819468  1
  F  F5  1  0.27071886  0.82495453  0.88819468  1
  F  F6  1  0.41390057  0.82697115  0.70462017  1
  F  F7  1  0.17302885  0.58692942  0.70462017  1
  F  F8  1  0.41307058  0.58609943  0.70462017  1
  F  F9  1  0.17302885  0.58609943  0.29537983  1
  F  F10  1  0.41307058  0.82697115  0.29537983  1
  F  F11  1  0.41390057  0.58692942  0.29537983  1
  F  F12  1  0.58006940  0.27771312  0.81661449  1
  F  F13  1  0.72228688  0.30235628  0.81661449  1
  F  F14  1  0.69764372  0.41993060  0.81661449  1
  F  F15  1  0.72228688  0.41993060  0.18338551  1
  F  F16  1  0.69764372  0.27771312  0.18338551  1
  F  F17  1  0.58006940  0.30235628  0.18338551  1
  F  F18  1  0.71873855  0.89778169  0.42103091  1
  F  F19  1  0.10221831  0.82095687  0.42103091  1
  F  F20  1  0.17904313  0.28126145  0.42103091  1
  F  F21  1  0.10221831  0.28126145  0.57896909  1
  F  F22  1  0.17904313  0.89778169  0.57896909  1
  F  F23  1  0.71873855  0.82095687  0.57896909  1
  F  F24  1  0.33333333  0.66666667  0.82961831  1
  F  F25  1  0.33333333  0.66666667  0.17038169  1
  Li  Li26  1  0.33333333  0.66666667  0.00000000  1
  Li  Li27  1  0.90816725  0.73897176  0.31539253  1
  Li  Li28  1  -0.73897176  0.16919549  0.31539253  1
  Li  Li29  1  -0.16919549  -0.90816725  0.31539253  1
  Li  Li30  1  -0.73897176  -0.90816725  -0.31539253  1
  Li  Li31  1  -0.16919549  0.73897176  -0.31539253  1
  Li  Li32  1  0.90816725  0.16919549  -0.31539253  1
  Li  Li33  1  0.89815084  0.30374965  0.19806708  1
  Li  Li34  1  0.69625035  0.59440119  0.19806708  1
  Li  Li35  1  0.40559881  0.10184916  0.19806708  1
  Li  Li36  1  0.69625035  0.10184916  0.80193292  1
  Li  Li37  1  0.40559881  0.30374965  0.80193292  1
  Li  Li38  1  0.89815084  0.59440119  0.80193292  1
  Li  Li39  1  0.66666667  0.33333333  0.00000000  1
  Li  Li40  1  0.07342469  0.57070110  0.07845527  1
  Li  Li41  1  0.42929890  0.50272360  0.07845527  1
  Li  Li42  1  0.49727640  0.92657531  0.07845527  1
  Li  Li43  1  0.42929890  0.92657531  0.92154473  1
  Li  Li44  1  0.49727640  0.57070110  0.92154473  1
  Li  Li45  1  0.07342469  0.50272360  0.92154473  1
  Li  Li46  1  0.08555328  0.91444672  0.50000000  1
  Li  Li47  1  0.08555328  0.17110657  0.50000000  1
  Li  Li48  1  0.82889343  0.91444672  0.50000000  1
  Li  Li49  1  0.26612178  0.73387822  0.50000000  1
  Li  Li50  1  0.26612178  0.53224356  0.50000000  1
  Li  Li51  1  0.46775644  0.73387822  0.50000000  1
