# generated using pymatgen
data_Li3Y2MoP3Se2
_symmetry_space_group_name_H-M   'P 1'
_cell_length_a   6.23953874
_cell_length_b   6.23492474
_cell_length_c   7.51929983
_cell_angle_alpha   92.57316094
_cell_angle_beta   95.60380958
_cell_angle_gamma   100.33536482
_symmetry_Int_Tables_number   1
_chemical_formula_structural   Li3Y2MoP3Se2
_chemical_formula_sum   'Li3 Y2 Mo1 P3 Se2'
_cell_volume   285.81953008
_cell_formula_units_Z   1
loop_
 _symmetry_equiv_pos_site_id
 _symmetry_equiv_pos_as_xyz
  1  'x, y, z'
loop_
 _atom_site_type_symbol
 _atom_site_label
 _atom_site_symmetry_multiplicity
 _atom_site_fract_x
 _atom_site_fract_y
 _atom_site_fract_z
 _atom_site_occupancy
  Se  Se0  1  0.00000000  0.00000000  0.00000000  1
  Se  Se1  1  0.50000000  0.50000000  0.50000000  1
  P  P2  1  0.25000000  0.25000000  0.25000000  1
  P  P3  1  0.75000000  0.25000000  0.00000000  1
  P  P4  1  0.25000000  0.75000000  0.50000000  1
  Mo  Mo5  1  0.45789088  0.01888148  0.18281220  1
  Li  Li6  1  0.97485148  0.57605330  0.33031461  1
  Li  Li7  1  0.27968833  0.48711013  0.05676662  1
  Li  Li8  1  0.88836494  0.92509524  0.03214009  1
  Y  Y9  1  0.76104749  0.67425055  0.41839906  1
  Y  Y10  1  0.32992997  0.17949780  0.09093426  1
