# generated using pymatgen
data_Li4TeF2
_symmetry_space_group_name_H-M   'P 1'
_cell_length_a   17.58557432
_cell_length_b   17.58557432
_cell_length_c   13.96117984
_cell_angle_alpha   90.00000000
_cell_angle_beta   90.00000000
_cell_angle_gamma   120.00000000
_symmetry_Int_Tables_number   1
_chemical_formula_structural   Li4TeF2
_chemical_formula_sum   'Li96 Te24 F48'
_cell_volume   3739.08954481
_cell_formula_units_Z   24
loop_
 _symmetry_equiv_pos_site_id
 _symmetry_equiv_pos_as_xyz
  1  'x, y, z'
loop_
 _atom_site_type_symbol
 _atom_site_label
 _atom_site_symmetry_multiplicity
 _atom_site_fract_x
 _atom_site_fract_y
 _atom_site_fract_z
 _atom_site_occupancy
  F  F0  1  0.11137609  0.98090390  0.96168699  1
  F  F1  1  -0.98090390  -0.86952781  0.96168699  1
  F  F2  1  0.86952781  -0.11137609  0.96168699  1
  F  F3  1  0.11137609  0.98090390  -0.96168699  1
  F  F4  1  -0.98090390  -0.86952781  -0.96168699  1
  F  F5  1  0.86952781  -0.11137609  -0.96168699  1
  F  F6  1  0.98090390  0.11137609  -0.96168699  1
  F  F7  1  -0.86952781  -0.98090390  -0.96168699  1
  F  F8  1  -0.11137609  0.86952781  -0.96168699  1
  F  F9  1  0.98090390  0.11137609  0.96168699  1
  F  F10  1  -0.86952781  -0.98090390  0.96168699  1
  F  F11  1  -0.11137609  0.86952781  0.96168699  1
  F  F12  1  0.56693233  0.69997499  0.41290164  1
  F  F13  1  0.30002501  0.86695734  0.41290164  1
  F  F14  1  0.13304266  0.43306767  0.41290164  1
  F  F15  1  0.56693233  0.69997499  0.58709836  1
  F  F16  1  0.30002501  0.86695734  0.58709836  1
  F  F17  1  0.13304266  0.43306767  0.58709836  1
  F  F18  1  0.69997499  0.56693233  0.58709836  1
  F  F19  1  0.86695734  0.30002501  0.58709836  1
  F  F20  1  0.43306767  0.13304266  0.58709836  1
  F  F21  1  0.69997499  0.56693233  0.41290164  1
  F  F22  1  0.86695734  0.30002501  0.41290164  1
  F  F23  1  0.43306767  0.13304266  0.41290164  1
  F  F24  1  0.03522100  0.88516662  0.50000000  1
  F  F25  1  0.11483338  0.15005439  0.50000000  1
  F  F26  1  0.84994561  0.96477900  0.50000000  1
  F  F27  1  0.88516662  0.03522100  0.50000000  1
  F  F28  1  0.15005439  0.11483338  0.50000000  1
  F  F29  1  0.96477900  0.84994561  0.50000000  1
  F  F30  1  0.33333333  0.66666667  0.50000000  1
  F  F31  1  0.66666667  0.33333333  0.50000000  1
  F  F32  1  0.09793396  0.00000000  0.88420926  1
  F  F33  1  0.00000000  0.09793396  0.88420926  1
  F  F34  1  0.90206604  0.90206604  0.88420926  1
  F  F35  1  0.09793396  0.00000000  0.11579074  1
  F  F36  1  0.00000000  0.09793396  0.11579074  1
  F  F37  1  0.90206604  0.90206604  0.11579074  1
  F  F38  1  0.07918829  0.58748817  0.00000000  1
  F  F39  1  0.41251183  0.49170012  0.00000000  1
  F  F40  1  0.50829988  0.92081171  0.00000000  1
  F  F41  1  0.58748817  0.07918829  -0.00000000  1
  F  F42  1  0.49170012  0.41251183  0.00000000  1
  F  F43  1  0.92081171  0.50829988  0.00000000  1
  F  F44  1  0.33333333  0.66666667  0.64013976  1
  F  F45  1  0.33333333  0.66666667  0.35986024  1
  F  F46  1  0.66666667  0.33333333  0.35986024  1
  F  F47  1  0.66666667  0.33333333  0.64013976  1
  Li  Li48  1  0.22092928  0.00000000  0.07363851  1
  Li  Li49  1  0.00000000  0.22092928  0.07363851  1
  Li  Li50  1  0.77907072  0.77907072  0.07363851  1
  Li  Li51  1  0.22092928  0.00000000  0.92636149  1
  Li  Li52  1  0.00000000  0.22092928  0.92636149  1
  Li  Li53  1  0.77907072  0.77907072  0.92636149  1
  Li  Li54  1  0.68383042  0.00000000  0.54933841  1
  Li  Li55  1  0.00000000  0.68383042  0.54933841  1
  Li  Li56  1  0.31616958  0.31616958  0.54933841  1
  Li  Li57  1  0.68383042  0.00000000  0.45066159  1
  Li  Li58  1  0.00000000  0.68383042  0.45066159  1
  Li  Li59  1  0.31616958  0.31616958  0.45066159  1
  Li  Li60  1  0.33333333  0.66666667  0.00000000  1
  Li  Li61  1  0.66666667  0.33333333  0.00000000  1
  Li  Li62  1  0.70488151  0.32563184  0.78517695  1
  Li  Li63  1  0.67436816  0.37924967  0.78517695  1
  Li  Li64  1  0.62075033  0.29511849  0.78517695  1
  Li  Li65  1  0.70488151  0.32563184  0.21482305  1
  Li  Li66  1  0.67436816  0.37924967  0.21482305  1
  Li  Li67  1  0.62075033  0.29511849  0.21482305  1
  Li  Li68  1  0.32563184  0.70488151  0.21482305  1
  Li  Li69  1  0.37924967  0.67436816  0.21482305  1
  Li  Li70  1  0.29511849  0.62075033  0.21482305  1
  Li  Li71  1  0.32563184  0.70488151  0.78517695  1
  Li  Li72  1  0.37924967  0.67436816  0.78517695  1
  Li  Li73  1  0.29511849  0.62075033  0.78517695  1
  Li  Li74  1  0.61050871  0.85374843  0.91709440  1
  Li  Li75  1  0.14625157  0.75676028  0.91709440  1
  Li  Li76  1  0.24323972  0.38949129  0.91709440  1
  Li  Li77  1  0.61050871  0.85374843  0.08290560  1
  Li  Li78  1  0.14625157  0.75676028  0.08290560  1
  Li  Li79  1  0.24323972  0.38949129  0.08290560  1
  Li  Li80  1  0.85374843  0.61050871  0.08290560  1
  Li  Li81  1  0.75676028  0.14625157  0.08290560  1
  Li  Li82  1  0.38949129  0.24323972  0.08290560  1
  Li  Li83  1  0.85374843  0.61050871  0.91709440  1
  Li  Li84  1  0.75676028  0.14625157  0.91709440  1
  Li  Li85  1  0.38949129  0.24323972  0.91709440  1
  Li  Li86  1  0.57411335  0.50790160  0.58194761  1
  Li  Li87  1  0.49209840  0.06621174  0.58194761  1
  Li  Li88  1  0.93378826  0.42588665  0.58194761  1
  Li  Li89  1  0.57411335  0.50790160  0.41805239  1
  Li  Li90  1  0.49209840  0.06621174  0.41805239  1
  Li  Li91  1  0.93378826  0.42588665  0.41805239  1
  Li  Li92  1  0.50790160  0.57411335  0.41805239  1
  Li  Li93  1  0.06621174  0.49209840  0.41805239  1
  Li  Li94  1  0.42588665  0.93378826  0.41805239  1
  Li  Li95  1  0.50790160  0.57411335  0.58194761  1
  Li  Li96  1  0.06621174  0.49209840  0.58194761  1
  Li  Li97  1  0.42588665  0.93378826  0.58194761  1
  Li  Li98  1  0.72408426  0.49791164  0.36782486  1
  Li  Li99  1  0.50208836  0.22617262  0.36782486  1
  Li  Li100  1  0.77382738  0.27591574  0.36782486  1
  Li  Li101  1  0.72408426  0.49791164  0.63217514  1
  Li  Li102  1  0.50208836  0.22617262  0.63217514  1
  Li  Li103  1  0.77382738  0.27591574  0.63217514  1
  Li  Li104  1  0.49791164  0.72408426  0.63217514  1
  Li  Li105  1  0.22617262  0.50208836  0.63217514  1
  Li  Li106  1  0.27591574  0.77382738  0.63217514  1
  Li  Li107  1  0.49791164  0.72408426  0.36782486  1
  Li  Li108  1  0.22617262  0.50208836  0.36782486  1
  Li  Li109  1  0.27591574  0.77382738  0.36782486  1
  Li  Li110  1  0.00000000  0.00000000  0.00000000  1
  Li  Li111  1  0.11383975  0.61930276  0.67437697  1
  Li  Li112  1  0.38069724  0.49453700  0.67437697  1
  Li  Li113  1  0.50546300  0.88616025  0.67437697  1
  Li  Li114  1  0.11383975  0.61930276  0.32562303  1
  Li  Li115  1  0.38069724  0.49453700  0.32562303  1
  Li  Li116  1  0.50546300  0.88616025  0.32562303  1
  Li  Li117  1  0.61930276  0.11383975  0.32562303  1
  Li  Li118  1  0.49453700  0.38069724  0.32562303  1
  Li  Li119  1  0.88616025  0.50546300  0.32562303  1
  Li  Li120  1  0.61930276  0.11383975  0.67437697  1
  Li  Li121  1  0.49453700  0.38069724  0.67437697  1
  Li  Li122  1  0.88616025  0.50546300  0.67437697  1
  Li  Li123  1  0.77623988  0.00000000  0.33498788  1
  Li  Li124  1  0.00000000  0.77623988  0.33498788  1
  Li  Li125  1  0.22376012  0.22376012  0.33498788  1
  Li  Li126  1  0.77623988  0.00000000  0.66501212  1
  Li  Li127  1  0.00000000  0.77623988  0.66501212  1
  Li  Li128  1  0.22376012  0.22376012  0.66501212  1
  Li  Li129  1  0.04413666  0.21330375  0.31255946  1
  Li  Li130  1  0.78669625  0.83083291  0.31255946  1
  Li  Li131  1  0.16916709  0.95586334  0.31255946  1
  Li  Li132  1  0.04413666  0.21330375  0.68744054  1
  Li  Li133  1  0.78669625  0.83083291  0.68744054  1
  Li  Li134  1  0.16916709  0.95586334  0.68744054  1
  Li  Li135  1  0.21330375  0.04413666  0.68744054  1
  Li  Li136  1  0.83083291  0.78669625  0.68744054  1
  Li  Li137  1  0.95586334  0.16916709  0.68744054  1
  Li  Li138  1  0.21330375  0.04413666  0.31255946  1
  Li  Li139  1  0.83083291  0.78669625  0.31255946  1
  Li  Li140  1  0.95586334  0.16916709  0.31255946  1
  Li  Li141  1  0.20037440  0.00000000  0.50000000  1
  Li  Li142  1  0.00000000  0.20037440  0.50000000  1
  Li  Li143  1  0.79962560  0.79962560  0.50000000  1
  Te  Te144  1  0.00000000  0.00000000  0.50000000  1
  Te  Te145  1  0.46560478  0.84380607  0.44650737  1
  Te  Te146  1  0.15619393  0.62179871  0.44650737  1
  Te  Te147  1  0.37820129  0.53439522  0.44650737  1
  Te  Te148  1  0.46560478  0.84380607  0.55349263  1
  Te  Te149  1  0.15619393  0.62179871  0.55349263  1
  Te  Te150  1  0.37820129  0.53439522  0.55349263  1
  Te  Te151  1  0.84380607  0.46560478  0.55349263  1
  Te  Te152  1  0.62179871  0.15619393  0.55349263  1
  Te  Te153  1  0.53439522  0.37820129  0.55349263  1
  Te  Te154  1  0.84380607  0.46560478  0.44650737  1
  Te  Te155  1  0.62179871  0.15619393  0.44650737  1
  Te  Te156  1  0.53439522  0.37820129  0.44650737  1
  Te  Te157  1  0.54583124  0.00000000  0.00000000  1
  Te  Te158  1  0.00000000  0.54583124  0.00000000  1
  Te  Te159  1  0.45416876  0.45416876  0.00000000  1
  Te  Te160  1  0.16323510  0.05711274  0.50000000  1
  Te  Te161  1  0.94288726  0.10612235  0.50000000  1
  Te  Te162  1  0.89387765  0.83676490  0.50000000  1
  Te  Te163  1  0.05711274  0.16323510  0.50000000  1
  Te  Te164  1  0.10612235  0.94288726  0.50000000  1
  Te  Te165  1  0.83676490  0.89387765  0.50000000  1
  Te  Te166  1  0.00000000  0.00000000  0.15735604  1
  Te  Te167  1  0.00000000  0.00000000  0.84264396  1
