# generated using pymatgen
data_LiF
_symmetry_space_group_name_H-M   'P 1'
_cell_length_a   14.83888305
_cell_length_b   14.83888305
_cell_length_c   10.37055606
_cell_angle_alpha   90.00000000
_cell_angle_beta   90.00000000
_cell_angle_gamma   120.00000000
_symmetry_Int_Tables_number   1
_chemical_formula_structural   LiF
_chemical_formula_sum   'Li108 F108'
_cell_volume   1977.58472766
_cell_formula_units_Z   108
loop_
 _symmetry_equiv_pos_site_id
 _symmetry_equiv_pos_as_xyz
  1  'x, y, z'
loop_
 _atom_site_type_symbol
 _atom_site_label
 _atom_site_symmetry_multiplicity
 _atom_site_fract_x
 _atom_site_fract_y
 _atom_site_fract_z
 _atom_site_occupancy
  F  F0  1  0.27933200  0.00000000  0.25000000  1
  F  F1  1  0.00000000  0.27933200  0.25000000  1
  F  F2  1  0.72066800  0.72066800  0.25000000  1
  F  F3  1  0.72066800  0.00000000  0.75000000  1
  F  F4  1  0.00000000  0.72066800  0.75000000  1
  F  F5  1  0.27933200  0.27933200  0.75000000  1
  F  F6  1  0.94599867  0.33333333  0.58333333  1
  F  F7  1  0.66666667  0.61266534  0.58333333  1
  F  F8  1  0.38733466  0.05400133  0.58333333  1
  F  F9  1  0.38733466  0.33333333  0.08333333  1
  F  F10  1  0.66666667  0.05400133  0.08333333  1
  F  F11  1  0.94599867  0.61266534  0.08333333  1
  F  F12  1  0.61266534  0.66666667  0.91666667  1
  F  F13  1  0.33333333  0.94599867  0.91666667  1
  F  F14  1  0.05400133  0.38733466  0.91666667  1
  F  F15  1  0.05400133  0.66666667  0.41666667  1
  F  F16  1  0.33333333  0.38733466  0.41666667  1
  F  F17  1  0.61266534  0.94599867  0.41666667  1
  F  F18  1  0.84867917  0.72674397  0.08076842  1
  F  F19  1  0.27325603  0.12193521  0.08076842  1
  F  F20  1  0.87806479  0.15132083  0.08076842  1
  F  F21  1  0.72674397  0.84867917  0.41923158  1
  F  F22  1  0.12193521  0.27325603  0.41923158  1
  F  F23  1  0.15132083  0.87806479  0.41923158  1
  F  F24  1  0.15132083  0.27325603  0.91923158  1
  F  F25  1  0.72674397  0.87806479  0.91923158  1
  F  F26  1  0.12193521  0.84867917  0.91923158  1
  F  F27  1  0.27325603  0.15132083  0.58076842  1
  F  F28  1  0.87806479  0.72674397  0.58076842  1
  F  F29  1  0.84867917  0.12193521  0.58076842  1
  F  F30  1  0.51534584  0.06007730  0.41410175  1
  F  F31  1  0.93992270  0.45526854  0.41410175  1
  F  F32  1  0.54473146  0.48465416  0.41410175  1
  F  F33  1  0.39341063  0.18201251  0.75256491  1
  F  F34  1  0.78860187  0.60658937  0.75256491  1
  F  F35  1  0.81798749  0.21139813  0.75256491  1
  F  F36  1  0.81798749  0.60658937  0.25256491  1
  F  F37  1  0.39341063  0.21139813  0.25256491  1
  F  F38  1  0.78860187  0.18201251  0.25256491  1
  F  F39  1  0.93992270  0.48465416  0.91410175  1
  F  F40  1  0.54473146  0.06007730  0.91410175  1
  F  F41  1  0.51534584  0.45526854  0.91410175  1
  F  F42  1  0.18201251  0.39341063  0.74743509  1
  F  F43  1  0.60658937  0.78860187  0.74743509  1
  F  F44  1  0.21139813  0.81798749  0.74743509  1
  F  F45  1  0.06007730  0.51534584  0.08589825  1
  F  F46  1  0.45526854  0.93992270  0.08589825  1
  F  F47  1  0.48465416  0.54473146  0.08589825  1
  F  F48  1  0.48465416  0.93992270  0.58589825  1
  F  F49  1  0.06007730  0.54473146  0.58589825  1
  F  F50  1  0.45526854  0.51534584  0.58589825  1
  F  F51  1  0.60658937  0.81798749  0.24743509  1
  F  F52  1  0.21139813  0.39341063  0.24743509  1
  F  F53  1  0.18201251  0.78860187  0.24743509  1
  F  F54  1  0.61738314  0.00000000  0.25000000  1
  F  F55  1  0.00000000  0.61738314  0.25000000  1
  F  F56  1  0.38261686  0.38261686  0.25000000  1
  F  F57  1  0.38261686  0.00000000  0.75000000  1
  F  F58  1  0.00000000  0.38261686  0.75000000  1
  F  F59  1  0.61738314  0.61738314  0.75000000  1
  F  F60  1  0.28404981  0.33333333  0.58333333  1
  F  F61  1  0.66666667  0.95071647  0.58333333  1
  F  F62  1  0.04928353  0.71595019  0.58333333  1
  F  F63  1  0.04928353  0.33333333  0.08333333  1
  F  F64  1  0.66666667  0.71595019  0.08333333  1
  F  F65  1  0.28404981  0.95071647  0.08333333  1
  F  F66  1  0.95071647  0.66666667  0.91666667  1
  F  F67  1  0.33333333  0.28404981  0.91666667  1
  F  F68  1  0.71595019  0.04928353  0.91666667  1
  F  F69  1  0.71595019  0.66666667  0.41666667  1
  F  F70  1  0.33333333  0.04928353  0.41666667  1
  F  F71  1  0.95071647  0.28404981  0.41666667  1
  F  F72  1  0.68047690  0.26590853  0.64067199  1
  F  F73  1  0.73409147  0.41456838  0.64067199  1
  F  F74  1  0.58543162  0.31952310  0.64067199  1
  F  F75  1  0.26590853  0.68047690  0.85932801  1
  F  F76  1  0.41456838  0.73409147  0.85932801  1
  F  F77  1  0.31952310  0.58543162  0.85932801  1
  F  F78  1  0.31952310  0.73409147  0.35932801  1
  F  F79  1  0.26590853  0.58543162  0.35932801  1
  F  F80  1  0.41456838  0.68047690  0.35932801  1
  F  F81  1  0.73409147  0.31952310  0.14067199  1
  F  F82  1  0.58543162  0.26590853  0.14067199  1
  F  F83  1  0.68047690  0.41456838  0.14067199  1
  F  F84  1  0.34714357  0.59924186  0.97400532  1
  F  F85  1  0.40075814  0.74790171  0.97400532  1
  F  F86  1  0.25209829  0.65285643  0.97400532  1
  F  F87  1  0.93257519  0.01381024  0.19266135  1
  F  F88  1  0.08123504  0.06742481  0.19266135  1
  F  F89  1  0.98618976  0.91876496  0.19266135  1
  F  F90  1  0.98618976  0.06742481  0.69266135  1
  F  F91  1  0.93257519  0.91876496  0.69266135  1
  F  F92  1  0.08123504  0.01381024  0.69266135  1
  F  F93  1  0.40075814  0.65285643  0.47400532  1
  F  F94  1  0.25209829  0.59924186  0.47400532  1
  F  F95  1  0.34714357  0.74790171  0.47400532  1
  F  F96  1  0.01381024  0.93257519  0.30733865  1
  F  F97  1  0.06742481  0.08123504  0.30733865  1
  F  F98  1  0.91876496  0.98618976  0.30733865  1
  F  F99  1  0.59924186  0.34714357  0.52599468  1
  F  F100  1  0.74790171  0.40075814  0.52599468  1
  F  F101  1  0.65285643  0.25209829  0.52599468  1
  F  F102  1  0.65285643  0.40075814  0.02599468  1
  F  F103  1  0.59924186  0.25209829  0.02599468  1
  F  F104  1  0.74790171  0.34714357  0.02599468  1
  F  F105  1  0.06742481  0.98618976  0.80733865  1
  F  F106  1  0.91876496  0.93257519  0.80733865  1
  F  F107  1  0.01381024  0.08123504  0.80733865  1
  Li  Li108  1  0.59682287  0.98830199  0.68436974  1
  Li  Li109  1  -0.98830199  -0.39147912  0.68436974  1
  Li  Li110  1  0.39147912  -0.59682287  0.68436974  1
  Li  Li111  1  0.98830199  0.59682287  -0.18436974  1
  Li  Li112  1  -0.39147912  -0.98830199  -0.18436974  1
  Li  Li113  1  -0.59682287  0.39147912  -0.18436974  1
  Li  Li114  1  -0.59682287  -0.98830199  -0.68436974  1
  Li  Li115  1  0.98830199  0.39147912  -0.68436974  1
  Li  Li116  1  -0.39147912  0.59682287  -0.68436974  1
  Li  Li117  1  -0.98830199  -0.59682287  1.18436974  1
  Li  Li118  1  0.39147912  0.98830199  1.18436974  1
  Li  Li119  1  0.59682287  -0.39147912  1.18436974  1
  Li  Li120  1  1.26348954  1.32163532  1.01770307  1
  Li  Li121  1  -0.32163532  -0.05814579  1.01770307  1
  Li  Li122  1  1.05814579  -0.26348954  1.01770307  1
  Li  Li123  1  1.65496866  0.93015620  0.14896359  1
  Li  Li124  1  0.27518755  -0.65496866  0.14896359  1
  Li  Li125  1  0.06984380  0.72481245  0.14896359  1
  Li  Li126  1  0.06984380  -0.65496866  -0.35103641  1
  Li  Li127  1  1.65496866  0.72481245  -0.35103641  1
  Li  Li128  1  0.27518755  0.93015620  -0.35103641  1
  Li  Li129  1  -0.32163532  -0.26348954  1.51770307  1
  Li  Li130  1  1.05814579  1.32163532  1.51770307  1
  Li  Li131  1  1.26348954  -0.05814579  1.51770307  1
  Li  Li132  1  0.93015620  1.65496866  1.35103641  1
  Li  Li133  1  -0.65496866  0.27518755  1.35103641  1
  Li  Li134  1  0.72481245  0.06984380  1.35103641  1
  Li  Li135  1  1.32163532  1.26348954  0.48229693  1
  Li  Li136  1  -0.05814579  -0.32163532  0.48229693  1
  Li  Li137  1  -0.26348954  1.05814579  0.48229693  1
  Li  Li138  1  -0.26348954  -0.32163532  -0.01770307  1
  Li  Li139  1  1.32163532  1.05814579  -0.01770307  1
  Li  Li140  1  -0.05814579  1.26348954  -0.01770307  1
  Li  Li141  1  -0.65496866  0.06984380  1.85103641  1
  Li  Li142  1  0.72481245  1.65496866  1.85103641  1
  Li  Li143  1  0.93015620  0.27518755  1.85103641  1
  Li  Li144  1  0.50000000  0.00000000  0.00000000  1
  Li  Li145  1  0.00000000  0.50000000  0.00000000  1
  Li  Li146  1  0.50000000  0.50000000  0.00000000  1
  Li  Li147  1  0.00000000  0.50000000  0.50000000  1
  Li  Li148  1  0.50000000  0.00000000  0.50000000  1
  Li  Li149  1  0.50000000  0.50000000  0.50000000  1
  Li  Li150  1  0.16666667  0.33333333  0.33333333  1
  Li  Li151  1  0.66666667  0.83333333  0.33333333  1
  Li  Li152  1  0.16666667  0.83333333  0.33333333  1
  Li  Li153  1  0.66666667  0.83333333  0.83333333  1
  Li  Li154  1  0.16666667  0.33333333  0.83333333  1
  Li  Li155  1  0.16666667  0.83333333  0.83333333  1
  Li  Li156  1  0.83333333  0.66666667  0.66666667  1
  Li  Li157  1  0.33333333  0.16666667  0.66666667  1
  Li  Li158  1  0.83333333  0.16666667  0.66666667  1
  Li  Li159  1  0.33333333  0.16666667  0.16666667  1
  Li  Li160  1  0.83333333  0.66666667  0.16666667  1
  Li  Li161  1  0.83333333  0.16666667  0.16666667  1
  Li  Li162  1  0.05685828  0.53528387  0.85604470  1
  Li  Li163  1  0.46471613  0.52157442  0.85604470  1
  Li  Li164  1  0.47842558  0.94314172  0.85604470  1
  Li  Li165  1  0.53528387  0.05685828  0.64395530  1
  Li  Li166  1  0.52157442  0.46471613  0.64395530  1
  Li  Li167  1  0.94314172  0.47842558  0.64395530  1
  Li  Li168  1  0.94314172  0.46471613  0.14395530  1
  Li  Li169  1  0.53528387  0.47842558  0.14395530  1
  Li  Li170  1  0.52157442  0.05685828  0.14395530  1
  Li  Li171  1  0.46471613  0.94314172  0.35604470  1
  Li  Li172  1  0.47842558  0.53528387  0.35604470  1
  Li  Li173  1  0.05685828  0.52157442  0.35604470  1
  Li  Li174  1  0.72352495  0.86861720  0.18937804  1
  Li  Li175  1  0.13138280  0.85490775  0.18937804  1
  Li  Li176  1  0.14509225  0.27647505  0.18937804  1
  Li  Li177  1  0.20195053  0.39019161  0.97728863  1
  Li  Li178  1  0.18824108  0.79804947  0.97728863  1
  Li  Li179  1  0.60980839  0.81175892  0.97728863  1
  Li  Li180  1  0.60980839  0.79804947  0.47728863  1
  Li  Li181  1  0.20195053  0.81175892  0.47728863  1
  Li  Li182  1  0.18824108  0.39019161  0.47728863  1
  Li  Li183  1  0.13138280  0.27647505  0.68937804  1
  Li  Li184  1  0.14509225  0.86861720  0.68937804  1
  Li  Li185  1  0.72352495  0.85490775  0.68937804  1
  Li  Li186  1  0.39019161  0.20195053  0.52271137  1
  Li  Li187  1  0.79804947  0.18824108  0.52271137  1
  Li  Li188  1  0.81175892  0.60980839  0.52271137  1
  Li  Li189  1  0.86861720  0.72352495  0.31062196  1
  Li  Li190  1  0.85490775  0.13138280  0.31062196  1
  Li  Li191  1  0.27647505  0.14509225  0.31062196  1
  Li  Li192  1  0.27647505  0.13138280  0.81062196  1
  Li  Li193  1  0.86861720  0.14509225  0.81062196  1
  Li  Li194  1  0.85490775  0.72352495  0.81062196  1
  Li  Li195  1  0.79804947  0.60980839  0.02271137  1
  Li  Li196  1  0.81175892  0.20195053  0.02271137  1
  Li  Li197  1  0.39019161  0.18824108  0.02271137  1
  Li  Li198  1  0.00000000  0.00000000  0.11428277  1
  Li  Li199  1  0.00000000  0.00000000  0.38571723  1
  Li  Li200  1  0.00000000  0.00000000  0.88571723  1
  Li  Li201  1  0.00000000  0.00000000  0.61428277  1
  Li  Li202  1  0.66666667  0.33333333  0.44761610  1
  Li  Li203  1  0.66666667  0.33333333  0.71905057  1
  Li  Li204  1  0.66666667  0.33333333  0.21905057  1
  Li  Li205  1  0.66666667  0.33333333  0.94761610  1
  Li  Li206  1  0.33333333  0.66666667  0.78094943  1
  Li  Li207  1  0.33333333  0.66666667  0.05238390  1
  Li  Li208  1  0.33333333  0.66666667  0.55238390  1
  Li  Li209  1  0.33333333  0.66666667  0.28094943  1
  Li  Li210  1  0.00000000  0.00000000  0.25000000  1
  Li  Li211  1  0.00000000  0.00000000  0.75000000  1
  Li  Li212  1  0.66666667  0.33333333  0.58333333  1
  Li  Li213  1  0.66666667  0.33333333  0.08333333  1
  Li  Li214  1  0.33333333  0.66666667  0.91666667  1
  Li  Li215  1  0.33333333  0.66666667  0.41666667  1
