# generated using pymatgen
data_LiF
_symmetry_space_group_name_H-M   'P 1'
_cell_length_a   16.73290339
_cell_length_b   16.73290339
_cell_length_c   2.06471563
_cell_angle_alpha   90.00000000
_cell_angle_beta   90.00000000
_cell_angle_gamma   120.00000000
_symmetry_Int_Tables_number   1
_chemical_formula_structural   LiF
_chemical_formula_sum   'Li20 F20'
_cell_volume   500.64915244
_cell_formula_units_Z   20
loop_
 _symmetry_equiv_pos_site_id
 _symmetry_equiv_pos_as_xyz
  1  'x, y, z'
loop_
 _atom_site_type_symbol
 _atom_site_label
 _atom_site_symmetry_multiplicity
 _atom_site_fract_x
 _atom_site_fract_y
 _atom_site_fract_z
 _atom_site_occupancy
  F  F0  1  0.12837027  0.81619849  0.85271904  1
  F  F1  1  0.18380151  0.31217179  0.85271904  1
  F  F2  1  0.68782821  0.87162973  0.85271904  1
  F  F3  1  0.18380151  0.87162973  0.14728096  1
  F  F4  1  0.68782821  0.81619849  0.14728096  1
  F  F5  1  0.12837027  0.31217179  0.14728096  1
  F  F6  1  0.61559818  0.38440182  0.50000000  1
  F  F7  1  0.61559818  0.23119637  0.50000000  1
  F  F8  1  0.76880363  0.38440182  0.50000000  1
  F  F9  1  0.66666667  0.33333333  0.00000000  1
  F  F10  1  0.10332239  0.89667761  0.50000000  1
  F  F11  1  0.10332239  0.20664478  0.50000000  1
  F  F12  1  0.79335522  0.89667761  0.50000000  1
  F  F13  1  0.00000000  0.00000000  0.50000000  1
  F  F14  1  0.95359646  0.52693046  0.22678148  1
  F  F15  1  0.47306954  0.42666600  0.22678148  1
  F  F16  1  0.57333400  0.04640354  0.22678148  1
  F  F17  1  0.47306954  0.04640354  0.77321852  1
  F  F18  1  0.57333400  0.52693046  0.77321852  1
  F  F19  1  0.95359646  0.42666600  0.77321852  1
  Li  Li20  1  0.66666667  0.33333333  0.50000000  1
  Li  Li21  1  0.47341804  0.11350782  0.88336817  1
  Li  Li22  1  -0.11350782  0.35991022  0.88336817  1
  Li  Li23  1  -0.35991022  -0.47341804  0.88336817  1
  Li  Li24  1  -0.11350782  -0.47341804  -0.88336817  1
  Li  Li25  1  -0.35991022  0.11350782  -0.88336817  1
  Li  Li26  1  0.47341804  0.35991022  -0.88336817  1
  Li  Li27  1  0.19205246  0.46602190  0.66166498  1
  Li  Li28  1  0.53397810  0.72603056  0.66166498  1
  Li  Li29  1  0.27396944  0.80794754  0.66166498  1
  Li  Li30  1  0.53397810  0.80794754  0.33833502  1
  Li  Li31  1  0.27396944  0.46602190  0.33833502  1
  Li  Li32  1  0.19205246  0.72603056  0.33833502  1
  Li  Li33  1  0.33333333  0.66666667  0.00000000  1
  Li  Li34  1  0.71938571  0.28061429  0.00000000  1
  Li  Li35  1  0.71938571  0.43877141  0.00000000  1
  Li  Li36  1  0.56122859  0.28061429  0.00000000  1
  Li  Li37  1  0.88808250  0.11191750  0.50000000  1
  Li  Li38  1  0.88808250  0.77616501  0.50000000  1
  Li  Li39  1  0.22383499  0.11191750  0.50000000  1
