# generated using pymatgen
data_Li3Y2P3
_symmetry_space_group_name_H-M   'P 1'
_cell_length_a   4.97054076
_cell_length_b   5.04681698
_cell_length_c   6.92143648
_cell_angle_alpha   94.75319831
_cell_angle_beta   100.35147775
_cell_angle_gamma   109.09170849
_symmetry_Int_Tables_number   1
_chemical_formula_structural   Li3Y2P3
_chemical_formula_sum   'Li3 Y2 P3'
_cell_volume   159.52201486
_cell_formula_units_Z   1
loop_
 _symmetry_equiv_pos_site_id
 _symmetry_equiv_pos_as_xyz
  1  'x, y, z'
loop_
 _atom_site_type_symbol
 _atom_site_label
 _atom_site_symmetry_multiplicity
 _atom_site_fract_x
 _atom_site_fract_y
 _atom_site_fract_z
 _atom_site_occupancy
  P  P0  1  0.12500000  0.12500000  0.12500000  1
  P  P1  1  0.50000000  0.50000000  0.50000000  1
  P  P2  1  0.25000000  0.25000000  0.25000000  1
  Li  Li3  1  0.75000000  0.75000000  0.75000000  1
  Li  Li4  1  0.82460574  0.44195403  0.08831586  1
  Li  Li5  1  0.62066662  0.22773013  0.99426467  1
  Y  Y6  1  0.48435818  0.73243799  0.19673260  1
  Y  Y7  1  0.29952986  0.81145647  0.57203443  1
