# generated using pymatgen
data_LiF
_symmetry_space_group_name_H-M   'P 1'
_cell_length_a   10.93752895
_cell_length_b   10.93752895
_cell_length_c   7.66089825
_cell_angle_alpha   90.00000000
_cell_angle_beta   90.00000000
_cell_angle_gamma   120.00000000
_symmetry_Int_Tables_number   1
_chemical_formula_structural   LiF
_chemical_formula_sum   'Li36 F36'
_cell_volume   793.68606753
_cell_formula_units_Z   36
loop_
 _symmetry_equiv_pos_site_id
 _symmetry_equiv_pos_as_xyz
  1  'x, y, z'
loop_
 _atom_site_type_symbol
 _atom_site_label
 _atom_site_symmetry_multiplicity
 _atom_site_fract_x
 _atom_site_fract_y
 _atom_site_fract_z
 _atom_site_occupancy
  F  F0  1  0.14359799  0.00000000  0.25000000  1
  F  F1  1  0.00000000  0.14359799  0.25000000  1
  F  F2  1  0.85640201  0.85640201  0.25000000  1
  F  F3  1  0.85640201  0.00000000  0.75000000  1
  F  F4  1  0.00000000  0.85640201  0.75000000  1
  F  F5  1  0.14359799  0.14359799  0.75000000  1
  F  F6  1  0.81026465  0.33333333  0.58333333  1
  F  F7  1  0.66666667  0.47693132  0.58333333  1
  F  F8  1  0.52306868  0.18973535  0.58333333  1
  F  F9  1  0.52306868  0.33333333  0.08333333  1
  F  F10  1  0.66666667  0.18973535  0.08333333  1
  F  F11  1  0.81026465  0.47693132  0.08333333  1
  F  F12  1  0.47693132  0.66666667  0.91666667  1
  F  F13  1  0.33333333  0.81026465  0.91666667  1
  F  F14  1  0.18973535  0.52306868  0.91666667  1
  F  F15  1  0.18973535  0.66666667  0.41666667  1
  F  F16  1  0.33333333  0.52306868  0.41666667  1
  F  F17  1  0.47693132  0.81026465  0.41666667  1
  F  F18  1  0.00000000  0.00000000  0.58269249  1
  F  F19  1  0.00000000  0.00000000  0.91730751  1
  F  F20  1  0.00000000  0.00000000  0.41730751  1
  F  F21  1  0.00000000  0.00000000  0.08269249  1
  F  F22  1  0.66666667  0.33333333  0.91602582  1
  F  F23  1  0.66666667  0.33333333  0.25064084  1
  F  F24  1  0.66666667  0.33333333  0.75064084  1
  F  F25  1  0.66666667  0.33333333  0.41602582  1
  F  F26  1  0.33333333  0.66666667  0.24935916  1
  F  F27  1  0.33333333  0.66666667  0.58397418  1
  F  F28  1  0.33333333  0.66666667  0.08397418  1
  F  F29  1  0.33333333  0.66666667  0.74935916  1
  F  F30  1  0.00000000  0.00000000  0.25000000  1
  F  F31  1  0.00000000  0.00000000  0.75000000  1
  F  F32  1  0.66666667  0.33333333  0.58333333  1
  F  F33  1  0.66666667  0.33333333  0.08333333  1
  F  F34  1  0.33333333  0.66666667  0.91666667  1
  F  F35  1  0.33333333  0.66666667  0.41666667  1
  Li  Li36  1  0.89004448  0.11274539  0.64786861  1
  Li  Li37  1  -0.11274539  0.77729910  0.64786861  1
  Li  Li38  1  -0.77729910  -0.89004448  0.64786861  1
  Li  Li39  1  0.11274539  0.89004448  -0.14786861  1
  Li  Li40  1  0.77729910  -0.11274539  -0.14786861  1
  Li  Li41  1  -0.89004448  -0.77729910  -0.14786861  1
  Li  Li42  1  -0.89004448  -0.11274539  -0.64786861  1
  Li  Li43  1  0.11274539  -0.77729910  -0.64786861  1
  Li  Li44  1  0.77729910  0.89004448  -0.64786861  1
  Li  Li45  1  -0.11274539  -0.89004448  1.14786861  1
  Li  Li46  1  -0.77729910  0.11274539  1.14786861  1
  Li  Li47  1  0.89004448  0.77729910  1.14786861  1
  Li  Li48  1  1.55671115  0.44607872  0.98120195  1
  Li  Li49  1  0.55392128  1.11063243  0.98120195  1
  Li  Li50  1  -0.11063243  -0.55671115  0.98120195  1
  Li  Li51  1  0.77941205  1.22337782  0.18546472  1
  Li  Li52  1  1.44396577  0.22058795  0.18546472  1
  Li  Li53  1  -0.22337782  -0.44396577  0.18546472  1
  Li  Li54  1  -0.22337782  0.22058795  -0.31453528  1
  Li  Li55  1  0.77941205  -0.44396577  -0.31453528  1
  Li  Li56  1  1.44396577  1.22337782  -0.31453528  1
  Li  Li57  1  0.55392128  -0.55671115  1.48120195  1
  Li  Li58  1  -0.11063243  0.44607872  1.48120195  1
  Li  Li59  1  1.55671115  1.11063243  1.48120195  1
  Li  Li60  1  1.22337782  0.77941205  1.31453528  1
  Li  Li61  1  0.22058795  1.44396577  1.31453528  1
  Li  Li62  1  -0.44396577  -0.22337782  1.31453528  1
  Li  Li63  1  0.44607872  1.55671115  0.51879805  1
  Li  Li64  1  1.11063243  0.55392128  0.51879805  1
  Li  Li65  1  -0.55671115  -0.11063243  0.51879805  1
  Li  Li66  1  -0.55671115  0.55392128  0.01879805  1
  Li  Li67  1  0.44607872  -0.11063243  0.01879805  1
  Li  Li68  1  1.11063243  1.55671115  0.01879805  1
  Li  Li69  1  0.22058795  -0.22337782  1.81453528  1
  Li  Li70  1  -0.44396577  0.77941205  1.81453528  1
  Li  Li71  1  1.22337782  1.44396577  1.81453528  1
