# generated using pymatgen
data_Li4YScF
_symmetry_space_group_name_H-M   'P 1'
_cell_length_a   3.32469672
_cell_length_b   3.18944865
_cell_length_c   5.37747959
_cell_angle_alpha   105.24890618
_cell_angle_beta   105.19234273
_cell_angle_gamma   110.84487032
_symmetry_Int_Tables_number   1
_chemical_formula_structural   Li4YScF
_chemical_formula_sum   'Li4 Y1 Sc1 F1'
_cell_volume   47.24531272
_cell_formula_units_Z   1
loop_
 _symmetry_equiv_pos_site_id
 _symmetry_equiv_pos_as_xyz
  1  'x, y, z'
loop_
 _atom_site_type_symbol
 _atom_site_label
 _atom_site_symmetry_multiplicity
 _atom_site_fract_x
 _atom_site_fract_y
 _atom_site_fract_z
 _atom_site_occupancy
  F  F0  1  0.00000000  0.00000000  0.00000000  1
  Li  Li1  1  0.33300000  0.66700000  0.25000000  1
  Li  Li2  1  0.66700000  0.33300000  0.50000000  1
  Li  Li3  1  0.00000000  0.00000000  0.75000000  1
  Li  Li4  1  0.53471001  0.99631774  0.04152829  1
  Sc  Sc5  1  0.79640506  0.20968990  0.52578847  1
  Y  Y6  1  0.42755913  0.24412243  0.84029005  1
