# generated using pymatgen
data_LiF
_symmetry_space_group_name_H-M   'P 1'
_cell_length_a   14.87028765
_cell_length_b   14.87028765
_cell_length_c   6.90811878
_cell_angle_alpha   90.00000000
_cell_angle_beta   90.00000000
_cell_angle_gamma   120.00000000
_symmetry_Int_Tables_number   1
_chemical_formula_structural   LiF
_chemical_formula_sum   'Li38 F38'
_cell_volume   1322.90655143
_cell_formula_units_Z   38
loop_
 _symmetry_equiv_pos_site_id
 _symmetry_equiv_pos_as_xyz
  1  'x, y, z'
loop_
 _atom_site_type_symbol
 _atom_site_label
 _atom_site_symmetry_multiplicity
 _atom_site_fract_x
 _atom_site_fract_y
 _atom_site_fract_z
 _atom_site_occupancy
  F  F0  1  0.56056305  0.75555525  0.83876052  1
  F  F1  1  0.24444475  0.80500780  0.83876052  1
  F  F2  1  0.19499220  0.43943695  0.83876052  1
  F  F3  1  0.24444475  0.43943695  0.16123948  1
  F  F4  1  0.19499220  0.75555525  0.16123948  1
  F  F5  1  0.56056305  0.80500780  0.16123948  1
  F  F6  1  0.84766859  0.00332473  0.26310096  1
  F  F7  1  0.99667527  0.84434386  0.26310096  1
  F  F8  1  0.15565614  0.15233141  0.26310096  1
  F  F9  1  0.99667527  0.15233141  0.73689904  1
  F  F10  1  0.15565614  0.00332473  0.73689904  1
  F  F11  1  0.84766859  0.84434386  0.73689904  1
  F  F12  1  0.74514171  0.48435482  0.67428143  1
  F  F13  1  0.51564518  0.26078689  0.67428143  1
  F  F14  1  0.73921311  0.25485829  0.67428143  1
  F  F15  1  0.51564518  0.25485829  0.32571857  1
  F  F16  1  0.73921311  0.48435482  0.32571857  1
  F  F17  1  0.74514171  0.26078689  0.32571857  1
  F  F18  1  0.20075939  0.38035570  0.37140637  1
  F  F19  1  0.61964430  0.82040369  0.37140637  1
  F  F20  1  0.17959631  0.79924061  0.37140637  1
  F  F21  1  0.61964430  0.79924061  0.62859363  1
  F  F22  1  0.17959631  0.38035570  0.62859363  1
  F  F23  1  0.20075939  0.82040369  0.62859363  1
  F  F24  1  0.14946665  0.53374407  0.49166704  1
  F  F25  1  0.46625593  0.61572257  0.49166704  1
  F  F26  1  0.38427743  0.85053335  0.49166704  1
  F  F27  1  0.46625593  0.85053335  0.50833296  1
  F  F28  1  0.38427743  0.53374407  0.50833296  1
  F  F29  1  0.14946665  0.61572257  0.50833296  1
  F  F30  1  0.27772849  0.95723188  0.91075982  1
  F  F31  1  0.04276812  0.32049660  0.91075982  1
  F  F32  1  0.67950340  0.72227151  0.91075982  1
  F  F33  1  0.04276812  0.72227151  0.08924018  1
  F  F34  1  0.67950340  0.95723188  0.08924018  1
  F  F35  1  0.27772849  0.32049660  0.08924018  1
  F  F36  1  0.33333333  0.66666667  0.65450284  1
  F  F37  1  0.33333333  0.66666667  0.34549716  1
  Li  Li38  1  0.33333333  0.66666667  0.50000000  1
  Li  Li39  1  0.47471558  0.14646020  0.29035759  1
  Li  Li40  1  -0.14646020  0.32825539  0.29035759  1
  Li  Li41  1  -0.32825539  -0.47471558  0.29035759  1
  Li  Li42  1  -0.14646020  -0.47471558  -0.29035759  1
  Li  Li43  1  -0.32825539  0.14646020  -0.29035759  1
  Li  Li44  1  0.47471558  0.32825539  -0.29035759  1
  Li  Li45  1  0.00000000  0.00000000  0.50000000  1
  Li  Li46  1  0.49387558  0.91342290  0.71584740  1
  Li  Li47  1  0.08657710  0.58045268  0.71584740  1
  Li  Li48  1  0.41954732  0.50612442  0.71584740  1
  Li  Li49  1  0.08657710  0.50612442  0.28415260  1
  Li  Li50  1  0.41954732  0.91342290  0.28415260  1
  Li  Li51  1  0.49387558  0.58045268  0.28415260  1
  Li  Li52  1  0.46465676  0.14652211  0.82117910  1
  Li  Li53  1  0.85347789  0.31813466  0.82117910  1
  Li  Li54  1  0.68186534  0.53534324  0.82117910  1
  Li  Li55  1  0.85347789  0.53534324  0.17882090  1
  Li  Li56  1  0.68186534  0.14652211  0.17882090  1
  Li  Li57  1  0.46465676  0.31813466  0.17882090  1
  Li  Li58  1  0.74227616  0.25772384  0.00000000  1
  Li  Li59  1  0.74227616  0.48455232  0.00000000  1
  Li  Li60  1  0.51544768  0.25772384  0.00000000  1
  Li  Li61  1  0.66666667  0.33333333  0.00000000  1
  Li  Li62  1  0.02773498  0.21998666  0.03311258  1
  Li  Li63  1  0.78001334  0.80774832  0.03311258  1
  Li  Li64  1  0.19225168  0.97226502  0.03311258  1
  Li  Li65  1  0.78001334  0.97226502  0.96688742  1
  Li  Li66  1  0.19225168  0.21998666  0.96688742  1
  Li  Li67  1  0.02773498  0.80774832  0.96688742  1
  Li  Li68  1  0.95623113  0.14168752  0.24371661  1
  Li  Li69  1  0.85831248  0.81454361  0.24371661  1
  Li  Li70  1  0.18545639  0.04376887  0.24371661  1
  Li  Li71  1  0.85831248  0.04376887  0.75628339  1
  Li  Li72  1  0.18545639  0.14168752  0.75628339  1
  Li  Li73  1  0.95623113  0.81454361  0.75628339  1
  Li  Li74  1  0.00000000  0.00000000  0.00000000  1
  Li  Li75  1  0.33333333  0.66666667  0.00000000  1
