# generated using pymatgen
data_Li2YAlF
_symmetry_space_group_name_H-M   'P 1'
_cell_length_a   3.11446582
_cell_length_b   2.77714761
_cell_length_c   6.05234387
_cell_angle_alpha   105.71915802
_cell_angle_beta   107.53278015
_cell_angle_gamma   103.86967254
_symmetry_Int_Tables_number   1
_chemical_formula_structural   Li2YAlF
_chemical_formula_sum   'Li2 Y1 Al1 F1'
_cell_volume   45.00946189
_cell_formula_units_Z   1
loop_
 _symmetry_equiv_pos_site_id
 _symmetry_equiv_pos_as_xyz
  1  'x, y, z'
loop_
 _atom_site_type_symbol
 _atom_site_label
 _atom_site_symmetry_multiplicity
 _atom_site_fract_x
 _atom_site_fract_y
 _atom_site_fract_z
 _atom_site_occupancy
  F  F0  1  0.12500000  0.12500000  0.12500000  1
  Al  Al1  1  0.50000000  0.50000000  0.50000000  1
  Li  Li2  1  0.25000000  0.25000000  0.25000000  1
  Li  Li3  1  0.75000000  0.75000000  0.75000000  1
  Y  Y4  1  0.65137200  0.79617247  0.84100054  1
