# generated using pymatgen
data_LiF
_symmetry_space_group_name_H-M   'P 1'
_cell_length_a   8.26762621
_cell_length_b   8.26762621
_cell_length_c   11.29272585
_cell_angle_alpha   90.00000000
_cell_angle_beta   90.00000000
_cell_angle_gamma   120.00000000
_symmetry_Int_Tables_number   1
_chemical_formula_structural   LiF
_chemical_formula_sum   'Li19 F19'
_cell_volume   668.48410197
_cell_formula_units_Z   19
loop_
 _symmetry_equiv_pos_site_id
 _symmetry_equiv_pos_as_xyz
  1  'x, y, z'
loop_
 _atom_site_type_symbol
 _atom_site_label
 _atom_site_symmetry_multiplicity
 _atom_site_fract_x
 _atom_site_fract_y
 _atom_site_fract_z
 _atom_site_occupancy
  F  F0  1  0.18308596  0.52827060  0.18146606  1
  F  F1  1  0.47172940  0.65481537  0.18146606  1
  F  F2  1  0.34518463  0.81691404  0.18146606  1
  F  F3  1  0.47172940  0.81691404  0.81853394  1
  F  F4  1  0.34518463  0.52827060  0.81853394  1
  F  F5  1  0.18308596  0.65481537  0.81853394  1
  F  F6  1  0.33333333  0.66666667  0.50000000  1
  F  F7  1  0.65956218  0.66298265  0.52552239  1
  F  F8  1  0.33701735  0.99657953  0.52552239  1
  F  F9  1  0.00342047  0.34043782  0.52552239  1
  F  F10  1  0.33701735  0.34043782  0.47447761  1
  F  F11  1  0.00342047  0.66298265  0.47447761  1
  F  F12  1  0.65956218  0.99657953  0.47447761  1
  F  F13  1  0.00000000  0.00000000  0.00000000  1
  F  F14  1  0.07459398  0.92540602  0.50000000  1
  F  F15  1  0.07459398  0.14918797  0.50000000  1
  F  F16  1  0.85081203  0.92540602  0.50000000  1
  F  F17  1  0.33333333  0.66666667  0.65073585  1
  F  F18  1  0.33333333  0.66666667  0.34926415  1
  Li  Li19  1  0.47240651  0.26835835  0.38833426  1
  Li  Li20  1  -0.26835835  0.20404816  0.38833426  1
  Li  Li21  1  -0.20404816  -0.47240651  0.38833426  1
  Li  Li22  1  -0.26835835  -0.47240651  -0.38833426  1
  Li  Li23  1  -0.20404816  0.26835835  -0.38833426  1
  Li  Li24  1  0.47240651  0.20404816  -0.38833426  1
  Li  Li25  1  0.00000000  0.00000000  0.50000000  1
  Li  Li26  1  0.66666667  0.33333333  0.00000000  1
  Li  Li27  1  0.75712418  0.24287582  0.00000000  1
  Li  Li28  1  0.75712418  0.51424836  0.00000000  1
  Li  Li29  1  0.48575164  0.24287582  0.00000000  1
  Li  Li30  1  0.92016496  0.10128869  0.17280756  1
  Li  Li31  1  0.89871131  0.81887627  0.17280756  1
  Li  Li32  1  0.18112373  0.07983504  0.17280756  1
  Li  Li33  1  0.89871131  0.07983504  0.82719244  1
  Li  Li34  1  0.18112373  0.10128869  0.82719244  1
  Li  Li35  1  0.92016496  0.81887627  0.82719244  1
  Li  Li36  1  0.00000000  0.00000000  0.77697362  1
  Li  Li37  1  0.00000000  0.00000000  0.22302638  1
