# generated using pymatgen
data_Li2Y2Cu3P2Se
_symmetry_space_group_name_H-M   'P 1'
_cell_length_a   4.86574695
_cell_length_b   5.03918320
_cell_length_c   6.58267336
_cell_angle_alpha   94.27824027
_cell_angle_beta   98.61083519
_cell_angle_gamma   105.98840465
_symmetry_Int_Tables_number   1
_chemical_formula_structural   Li2Y2Cu3P2Se
_chemical_formula_sum   'Li2 Y2 Cu3 P2 Se1'
_cell_volume   152.26710035
_cell_formula_units_Z   1
loop_
 _symmetry_equiv_pos_site_id
 _symmetry_equiv_pos_as_xyz
  1  'x, y, z'
loop_
 _atom_site_type_symbol
 _atom_site_label
 _atom_site_symmetry_multiplicity
 _atom_site_fract_x
 _atom_site_fract_y
 _atom_site_fract_z
 _atom_site_occupancy
  Y  Y0  1  0.00000000  0.00000000  0.00000000  1
  Y  Y1  1  0.50000000  0.50000000  0.50000000  1
  P  P2  1  0.25000000  0.25000000  0.25000000  1
  P  P3  1  0.75000000  0.25000000  0.00000000  1
  Se  Se4  1  0.25000000  0.75000000  0.50000000  1
  Li  Li5  1  0.57642564  0.91141769  0.24950610  1
  Li  Li6  1  0.12993755  0.63958676  0.41698924  1
  Cu  Cu7  1  0.25962487  0.18695086  0.06020134  1
  Cu  Cu8  1  0.00346299  0.53894837  0.54243135  1
  Cu  Cu9  1  0.11384982  0.73075731  0.12983054  1
