# generated using pymatgen
data_Li2AlOF
_symmetry_space_group_name_H-M   'P 1'
_cell_length_a   3.19395030
_cell_length_b   2.84892166
_cell_length_c   5.50919005
_cell_angle_alpha   101.93904138
_cell_angle_beta   103.57815456
_cell_angle_gamma   100.28883854
_symmetry_Int_Tables_number   1
_chemical_formula_structural   Li2AlOF
_chemical_formula_sum   'Li2 Al1 O1 F1'
_cell_volume   46.29446950
_cell_formula_units_Z   1
loop_
 _symmetry_equiv_pos_site_id
 _symmetry_equiv_pos_as_xyz
  1  'x, y, z'
loop_
 _atom_site_type_symbol
 _atom_site_label
 _atom_site_symmetry_multiplicity
 _atom_site_fract_x
 _atom_site_fract_y
 _atom_site_fract_z
 _atom_site_occupancy
  F  F0  1  0.00000000  0.00000000  0.00000000  1
  Al  Al1  1  0.33300000  0.66700000  0.25000000  1
  Li  Li2  1  0.66700000  0.33300000  0.50000000  1
  Li  Li3  1  0.00000000  0.00000000  0.75000000  1
  O  O4  1  0.33206147  0.00615355  0.84152050  1
