# generated using pymatgen
data_Li2Si4Te3F12
_symmetry_space_group_name_H-M   'P 1'
_cell_length_a   11.37892548
_cell_length_b   6.80667234
_cell_length_c   16.22063449
_cell_angle_alpha   90.00000000
_cell_angle_beta   90.00000000
_cell_angle_gamma   90.00000000
_symmetry_Int_Tables_number   1
_chemical_formula_structural   Li2Si4Te3F12
_chemical_formula_sum   'Li8 Si16 Te12 F48'
_cell_volume   1256.33059539
_cell_formula_units_Z   4
loop_
 _symmetry_equiv_pos_site_id
 _symmetry_equiv_pos_as_xyz
  1  'x, y, z'
loop_
 _atom_site_type_symbol
 _atom_site_label
 _atom_site_symmetry_multiplicity
 _atom_site_fract_x
 _atom_site_fract_y
 _atom_site_fract_z
 _atom_site_occupancy
  F  F0  1  0.26042891  0.86064143  0.81549139  1
  F  F1  1  0.73957109  0.13935857  0.81549139  1
  F  F2  1  0.23957109  0.36064143  0.68450861  1
  F  F3  1  0.76042891  0.63935857  0.68450861  1
  F  F4  1  0.73957109  0.13935857  0.18450861  1
  F  F5  1  0.26042891  0.86064143  0.18450861  1
  F  F6  1  0.76042891  0.63935857  0.31549139  1
  F  F7  1  0.23957109  0.36064143  0.31549139  1
  F  F8  1  0.00000000  0.50000000  0.00000000  1
  F  F9  1  0.50000000  0.00000000  0.50000000  1
  F  F10  1  0.00000000  0.00000000  0.50000000  1
  F  F11  1  0.50000000  0.50000000  0.00000000  1
  F  F12  1  0.62314177  0.01934584  0.72322637  1
  F  F13  1  0.37685823  0.98065416  0.72322637  1
  F  F14  1  0.87685823  0.51934584  0.77677363  1
  F  F15  1  0.12314177  0.48065416  0.77677363  1
  F  F16  1  0.37685823  0.98065416  0.27677363  1
  F  F17  1  0.62314177  0.01934584  0.27677363  1
  F  F18  1  0.12314177  0.48065416  0.22322637  1
  F  F19  1  0.87685823  0.51934584  0.22322637  1
  F  F20  1  0.39565454  0.25658962  0.92594577  1
  F  F21  1  0.60434546  0.74341038  0.92594577  1
  F  F22  1  0.10434546  0.75658962  0.57405423  1
  F  F23  1  0.89565454  0.24341038  0.57405423  1
  F  F24  1  0.60434546  0.74341038  0.07405423  1
  F  F25  1  0.39565454  0.25658962  0.07405423  1
  F  F26  1  0.89565454  0.24341038  0.42594577  1
  F  F27  1  0.10434546  0.75658962  0.42594577  1
  F  F28  1  0.00000000  0.50000000  0.35503265  1
  F  F29  1  0.50000000  0.00000000  0.14496735  1
  F  F30  1  0.00000000  0.50000000  0.64496735  1
  F  F31  1  0.50000000  0.00000000  0.85503265  1
  F  F32  1  0.87201561  0.04264155  0.00000000  1
  F  F33  1  0.12798439  0.95735845  0.00000000  1
  F  F34  1  0.62798439  0.54264155  0.50000000  1
  F  F35  1  0.37201561  0.45735845  0.50000000  1
  F  F36  1  0.40263593  0.86664953  0.39340167  1
  F  F37  1  0.59736407  0.13335047  0.39340167  1
  F  F38  1  0.09736407  0.36664953  0.10659833  1
  F  F39  1  0.90263593  0.63335047  0.10659833  1
  F  F40  1  0.59736407  0.13335047  0.60659833  1
  F  F41  1  0.40263593  0.86664953  0.60659833  1
  F  F42  1  0.90263593  0.63335047  0.89340167  1
  F  F43  1  0.09736407  0.36664953  0.89340167  1
  F  F44  1  0.00000000  0.00000000  0.42405254  1
  F  F45  1  0.50000000  0.50000000  0.07594746  1
  F  F46  1  0.00000000  0.00000000  0.57594746  1
  F  F47  1  0.50000000  0.50000000  0.92405254  1
  Li  Li48  1  0.00000000  0.50000000  0.29183300  1
  Li  Li49  1  0.50000000  0.00000000  0.20816700  1
  Li  Li50  1  0.00000000  0.50000000  0.70816700  1
  Li  Li51  1  0.50000000  0.00000000  0.79183300  1
  Li  Li52  1  0.00000000  0.50000000  0.91825586  1
  Li  Li53  1  0.50000000  0.00000000  0.58174414  1
  Li  Li54  1  0.00000000  0.50000000  0.08174414  1
  Li  Li55  1  0.50000000  0.00000000  0.41825586  1
  Si  Si56  1  0.52790170  0.41980023  0.11281846  1
  Si  Si57  1  -0.52790170  -0.41980023  0.11281846  1
  Si  Si58  1  -0.02790170  0.91980023  0.38718154  1
  Si  Si59  1  1.02790170  0.08019977  0.38718154  1
  Si  Si60  1  -0.52790170  -0.41980023  -0.11281846  1
  Si  Si61  1  0.52790170  0.41980023  -0.11281846  1
  Si  Si62  1  1.02790170  0.08019977  0.61281846  1
  Si  Si63  1  -0.02790170  0.91980023  0.61281846  1
  Si  Si64  1  0.00000000  0.00000000  0.00000000  1
  Si  Si65  1  0.50000000  0.50000000  0.50000000  1
  Si  Si66  1  0.00000000  0.00000000  0.08034891  1
  Si  Si67  1  0.50000000  0.50000000  0.41965109  1
  Si  Si68  1  0.00000000  0.00000000  0.91965109  1
  Si  Si69  1  0.50000000  0.50000000  0.58034891  1
  Si  Si70  1  0.00000000  0.50000000  0.50000000  1
  Si  Si71  1  0.50000000  0.00000000  0.00000000  1
  Te  Te72  1  0.19786408  0.95493357  0.31809857  1
  Te  Te73  1  0.80213592  0.04506643  0.31809857  1
  Te  Te74  1  0.30213592  0.45493357  0.18190143  1
  Te  Te75  1  0.69786408  0.54506643  0.18190143  1
  Te  Te76  1  0.80213592  0.04506643  0.68190143  1
  Te  Te77  1  0.19786408  0.95493357  0.68190143  1
  Te  Te78  1  0.69786408  0.54506643  0.81809857  1
  Te  Te79  1  0.30213592  0.45493357  0.81809857  1
  Te  Te80  1  0.00000000  0.00000000  0.27698052  1
  Te  Te81  1  0.50000000  0.50000000  0.22301948  1
  Te  Te82  1  0.00000000  0.00000000  0.72301948  1
  Te  Te83  1  0.50000000  0.50000000  0.77698052  1
