# generated using pymatgen
data_LiScAlOF
_symmetry_space_group_name_H-M   'P 1'
_cell_length_a   3.29239103
_cell_length_b   3.01171177
_cell_length_c   5.49167308
_cell_angle_alpha   106.54767667
_cell_angle_beta   100.55679400
_cell_angle_gamma   101.49984360
_symmetry_Int_Tables_number   1
_chemical_formula_structural   LiScAlOF
_chemical_formula_sum   'Li1 Sc1 Al1 O1 F1'
_cell_volume   49.45316485
_cell_formula_units_Z   1
loop_
 _symmetry_equiv_pos_site_id
 _symmetry_equiv_pos_as_xyz
  1  'x, y, z'
loop_
 _atom_site_type_symbol
 _atom_site_label
 _atom_site_symmetry_multiplicity
 _atom_site_fract_x
 _atom_site_fract_y
 _atom_site_fract_z
 _atom_site_occupancy
  F  F0  1  0.00000000  0.00000000  0.00000000  1
  O  O1  1  0.50000000  0.50000000  0.50000000  1
  Sc  Sc2  1  0.25000000  0.25000000  0.25000000  1
  Al  Al3  1  0.75000000  0.25000000  0.00000000  1
  Li  Li4  1  0.25000000  0.75000000  0.50000000  1
