# generated using pymatgen
data_LiF
_symmetry_space_group_name_H-M   'P 1'
_cell_length_a   9.53625556
_cell_length_b   15.21841363
_cell_length_c   4.78049773
_cell_angle_alpha   90.00000000
_cell_angle_beta   90.00000000
_cell_angle_gamma   90.00000000
_symmetry_Int_Tables_number   1
_chemical_formula_structural   LiF
_chemical_formula_sum   'Li24 F24'
_cell_volume   693.77777190
_cell_formula_units_Z   24
loop_
 _symmetry_equiv_pos_site_id
 _symmetry_equiv_pos_as_xyz
  1  'x, y, z'
loop_
 _atom_site_type_symbol
 _atom_site_label
 _atom_site_symmetry_multiplicity
 _atom_site_fract_x
 _atom_site_fract_y
 _atom_site_fract_z
 _atom_site_occupancy
  F  F0  1  0.66324354  0.25000000  0.16769060  1
  F  F1  1  0.83675646  0.75000000  0.66769060  1
  F  F2  1  0.33675646  0.75000000  0.83230940  1
  F  F3  1  0.16324354  0.25000000  0.33230940  1
  F  F4  1  0.00000000  0.00000000  0.50000000  1
  F  F5  1  0.50000000  0.00000000  0.00000000  1
  F  F6  1  0.00000000  0.50000000  0.50000000  1
  F  F7  1  0.50000000  0.50000000  0.00000000  1
  F  F8  1  0.70608516  0.02934366  0.30156247  1
  F  F9  1  0.79391484  0.97065634  0.80156247  1
  F  F10  1  0.29391484  0.52934366  0.69843753  1
  F  F11  1  0.20608516  0.47065634  0.19843753  1
  F  F12  1  0.29391484  0.97065634  0.69843753  1
  F  F13  1  0.20608516  0.02934366  0.19843753  1
  F  F14  1  0.70608516  0.47065634  0.30156247  1
  F  F15  1  0.79391484  0.52934366  0.80156247  1
  F  F16  1  0.38306866  0.25000000  0.52727313  1
  F  F17  1  0.11693134  0.75000000  0.02727313  1
  F  F18  1  0.61693134  0.75000000  0.47272687  1
  F  F19  1  0.88306866  0.25000000  0.97272687  1
  F  F20  1  0.34488871  0.25000000  0.74407800  1
  F  F21  1  0.15511129  0.75000000  0.24407800  1
  F  F22  1  0.65511129  0.75000000  0.25592200  1
  F  F23  1  0.84488871  0.25000000  0.75592200  1
  Li  Li24  1  0.54008221  0.45985101  0.58140498  1
  Li  Li25  1  -0.04008221  -0.45985101  1.08140498  1
  Li  Li26  1  -0.54008221  0.95985101  -0.58140498  1
  Li  Li27  1  1.04008221  0.04014899  -0.08140498  1
  Li  Li28  1  -0.54008221  -0.45985101  -0.58140498  1
  Li  Li29  1  1.04008221  0.45985101  -0.08140498  1
  Li  Li30  1  0.54008221  0.04014899  0.58140498  1
  Li  Li31  1  -0.04008221  0.95985101  1.08140498  1
  Li  Li32  1  0.15986753  0.53604924  0.73619673  1
  Li  Li33  1  0.34013247  0.46395076  0.23619673  1
  Li  Li34  1  0.84013247  0.03604924  0.26380327  1
  Li  Li35  1  0.65986753  0.96395076  0.76380327  1
  Li  Li36  1  0.84013247  0.46395076  0.26380327  1
  Li  Li37  1  0.65986753  0.53604924  0.76380327  1
  Li  Li38  1  0.15986753  0.96395076  0.73619673  1
  Li  Li39  1  0.34013247  0.03604924  0.23619673  1
  Li  Li40  1  0.44236768  0.40812450  0.44774120  1
  Li  Li41  1  0.05763232  0.59187550  0.94774120  1
  Li  Li42  1  0.55763232  0.90812450  0.55225880  1
  Li  Li43  1  0.94236768  0.09187550  0.05225880  1
  Li  Li44  1  0.55763232  0.59187550  0.55225880  1
  Li  Li45  1  0.94236768  0.40812450  0.05225880  1
  Li  Li46  1  0.44236768  0.09187550  0.44774120  1
  Li  Li47  1  0.05763232  0.90812450  0.94774120  1
