# generated using pymatgen
data_Li2YTiF
_symmetry_space_group_name_H-M   'P 1'
_cell_length_a   3.16282371
_cell_length_b   3.03134139
_cell_length_c   5.58874495
_cell_angle_alpha   99.46082948
_cell_angle_beta   106.03020297
_cell_angle_gamma   108.17630294
_symmetry_Int_Tables_number   1
_chemical_formula_structural   Li2YTiF
_chemical_formula_sum   'Li2 Y1 Ti1 F1'
_cell_volume   47.05213678
_cell_formula_units_Z   1
loop_
 _symmetry_equiv_pos_site_id
 _symmetry_equiv_pos_as_xyz
  1  'x, y, z'
loop_
 _atom_site_type_symbol
 _atom_site_label
 _atom_site_symmetry_multiplicity
 _atom_site_fract_x
 _atom_site_fract_y
 _atom_site_fract_z
 _atom_site_occupancy
  F  F0  1  0.00000000  0.00000000  0.00000000  1
  Ti  Ti1  1  0.50000000  0.50000000  0.50000000  1
  Y  Y2  1  0.50000000  0.50000000  0.00000000  1
  Li  Li3  1  0.50000000  0.00000000  0.50000000  1
  Li  Li4  1  0.00000000  0.50000000  0.50000000  1
