# generated using pymatgen
data_LiF
_symmetry_space_group_name_H-M   'P 1'
_cell_length_a   10.85594948
_cell_length_b   10.85594948
_cell_length_c   6.65714530
_cell_angle_alpha   90.00000000
_cell_angle_beta   90.00000000
_cell_angle_gamma   120.00000000
_symmetry_Int_Tables_number   1
_chemical_formula_structural   LiF
_chemical_formula_sum   'Li26 F26'
_cell_volume   679.44498064
_cell_formula_units_Z   26
loop_
 _symmetry_equiv_pos_site_id
 _symmetry_equiv_pos_as_xyz
  1  'x, y, z'
loop_
 _atom_site_type_symbol
 _atom_site_label
 _atom_site_symmetry_multiplicity
 _atom_site_fract_x
 _atom_site_fract_y
 _atom_site_fract_z
 _atom_site_occupancy
  F  F0  1  0.83741864  0.00093138  0.60278733  1
  F  F1  1  0.99906862  0.83648726  0.60278733  1
  F  F2  1  0.16351274  0.16258136  0.60278733  1
  F  F3  1  0.99906862  0.16258136  0.39721267  1
  F  F4  1  0.16351274  0.00093138  0.39721267  1
  F  F5  1  0.83741864  0.83648726  0.39721267  1
  F  F6  1  0.33333333  0.66666667  0.50000000  1
  F  F7  1  0.81640275  0.62526569  0.63492851  1
  F  F8  1  0.37473431  0.19113706  0.63492851  1
  F  F9  1  0.80886294  0.18359725  0.63492851  1
  F  F10  1  0.37473431  0.18359725  0.36507149  1
  F  F11  1  0.80886294  0.62526569  0.36507149  1
  F  F12  1  0.81640275  0.19113706  0.36507149  1
  F  F13  1  0.41989118  0.28320500  0.74219200  1
  F  F14  1  0.71679500  0.13668618  0.74219200  1
  F  F15  1  0.86331382  0.58010882  0.74219200  1
  F  F16  1  0.71679500  0.58010882  0.25780800  1
  F  F17  1  0.86331382  0.28320500  0.25780800  1
  F  F18  1  0.41989118  0.13668618  0.25780800  1
  F  F19  1  0.95479465  0.67382058  0.92882828  1
  F  F20  1  0.32617942  0.28097408  0.92882828  1
  F  F21  1  0.71902592  0.04520535  0.92882828  1
  F  F22  1  0.32617942  0.04520535  0.07117172  1
  F  F23  1  0.71902592  0.67382058  0.07117172  1
  F  F24  1  0.95479465  0.28097408  0.07117172  1
  F  F25  1  0.00000000  0.00000000  0.50000000  1
  Li  Li26  1  0.00000000  0.00000000  0.00000000  1
  Li  Li27  1  0.51813458  0.22352892  0.66877285  1
  Li  Li28  1  -0.22352892  0.29460566  0.66877285  1
  Li  Li29  1  -0.29460566  -0.51813458  0.66877285  1
  Li  Li30  1  -0.22352892  -0.51813458  -0.66877285  1
  Li  Li31  1  -0.29460566  0.22352892  -0.66877285  1
  Li  Li32  1  0.51813458  0.29460566  -0.66877285  1
  Li  Li33  1  0.99147805  0.44661077  0.26519758  1
  Li  Li34  1  0.55338923  0.54486728  0.26519758  1
  Li  Li35  1  0.45513272  0.00852195  0.26519758  1
  Li  Li36  1  0.55338923  0.00852195  0.73480242  1
  Li  Li37  1  0.45513272  0.44661077  0.73480242  1
  Li  Li38  1  0.99147805  0.54486728  0.73480242  1
  Li  Li39  1  0.96040233  0.57947324  0.27344436  1
  Li  Li40  1  0.42052676  0.38092909  0.27344436  1
  Li  Li41  1  0.61907091  0.03959767  0.27344436  1
  Li  Li42  1  0.42052676  0.03959767  0.72655564  1
  Li  Li43  1  0.61907091  0.57947324  0.72655564  1
  Li  Li44  1  0.96040233  0.38092909  0.72655564  1
  Li  Li45  1  0.25052421  0.54226530  0.30402186  1
  Li  Li46  1  0.45773470  0.70825891  0.30402186  1
  Li  Li47  1  0.29174109  0.74947579  0.30402186  1
  Li  Li48  1  0.45773470  0.74947579  0.69597814  1
  Li  Li49  1  0.29174109  0.54226530  0.69597814  1
  Li  Li50  1  0.25052421  0.70825891  0.69597814  1
  Li  Li51  1  0.66666667  0.33333333  0.50000000  1
