# generated using pymatgen
data_LiF
_symmetry_space_group_name_H-M   'P 1'
_cell_length_a   8.56542934
_cell_length_b   8.54209526
_cell_length_c   9.14023766
_cell_angle_alpha   90.00000000
_cell_angle_beta   90.00000000
_cell_angle_gamma   90.00000000
_symmetry_Int_Tables_number   1
_chemical_formula_structural   LiF
_chemical_formula_sum   'Li24 F24'
_cell_volume   668.76114914
_cell_formula_units_Z   24
loop_
 _symmetry_equiv_pos_site_id
 _symmetry_equiv_pos_as_xyz
  1  'x, y, z'
loop_
 _atom_site_type_symbol
 _atom_site_label
 _atom_site_symmetry_multiplicity
 _atom_site_fract_x
 _atom_site_fract_y
 _atom_site_fract_z
 _atom_site_occupancy
  F  F0  1  0.00000000  0.50000000  0.18316020  1
  F  F1  1  0.50000000  0.00000000  0.81683980  1
  F  F2  1  0.00000000  0.50000000  0.81683980  1
  F  F3  1  0.50000000  0.00000000  0.18316020  1
  F  F4  1  0.00000000  0.00000000  0.50000000  1
  F  F5  1  0.50000000  0.50000000  0.50000000  1
  F  F6  1  0.52374701  0.30159112  0.21456719  1
  F  F7  1  -0.52374701  -0.30159112  0.21456719  1
  F  F8  1  -0.02374701  0.80159112  -0.21456719  1
  F  F9  1  1.02374701  0.19840888  -0.21456719  1
  F  F10  1  -0.52374701  -0.30159112  -0.21456719  1
  F  F11  1  0.52374701  0.30159112  -0.21456719  1
  F  F12  1  1.02374701  0.19840888  0.21456719  1
  F  F13  1  -0.02374701  0.80159112  0.21456719  1
  F  F14  1  0.01918289  0.37912099  0.92554562  1
  F  F15  1  0.98081711  0.62087901  0.92554562  1
  F  F16  1  0.48081711  0.87912099  0.07445438  1
  F  F17  1  0.51918289  0.12087901  0.07445438  1
  F  F18  1  0.98081711  0.62087901  0.07445438  1
  F  F19  1  0.01918289  0.37912099  0.07445438  1
  F  F20  1  0.51918289  0.12087901  0.92554562  1
  F  F21  1  0.48081711  0.87912099  0.92554562  1
  F  F22  1  0.00000000  0.00000000  0.00000000  1
  F  F23  1  0.50000000  0.50000000  0.00000000  1
  Li  Li24  1  0.73637868  0.48477298  0.09603088  1
  Li  Li25  1  0.26362132  0.51522702  0.09603088  1
  Li  Li26  1  0.76362132  0.98477298  0.90396912  1
  Li  Li27  1  0.23637868  0.01522702  0.90396912  1
  Li  Li28  1  0.26362132  0.51522702  0.90396912  1
  Li  Li29  1  0.73637868  0.48477298  0.90396912  1
  Li  Li30  1  0.23637868  0.01522702  0.09603088  1
  Li  Li31  1  0.76362132  0.98477298  0.09603088  1
  Li  Li32  1  0.03657217  0.80056935  -0.00000000  1
  Li  Li33  1  0.96342783  0.19943065  0.00000000  1
  Li  Li34  1  0.46342783  0.30056935  0.00000000  1
  Li  Li35  1  0.53657217  0.69943065  0.00000000  1
  Li  Li36  1  0.91108590  0.05713217  0.62715145  1
  Li  Li37  1  0.08891410  0.94286783  0.62715145  1
  Li  Li38  1  0.58891410  0.55713217  0.37284855  1
  Li  Li39  1  0.41108590  0.44286783  0.37284855  1
  Li  Li40  1  0.08891410  0.94286783  0.37284855  1
  Li  Li41  1  0.91108590  0.05713217  0.37284855  1
  Li  Li42  1  0.41108590  0.44286783  0.62715145  1
  Li  Li43  1  0.58891410  0.55713217  0.62715145  1
  Li  Li44  1  0.06855092  0.32304176  0.50000000  1
  Li  Li45  1  0.93144908  0.67695824  0.50000000  1
  Li  Li46  1  0.43144908  0.82304176  0.50000000  1
  Li  Li47  1  0.56855092  0.17695824  0.50000000  1
