# generated using pymatgen
data_LiF
_symmetry_space_group_name_H-M   'P 1'
_cell_length_a   13.52622639
_cell_length_b   14.23915393
_cell_length_c   11.75827482
_cell_angle_alpha   90.00000000
_cell_angle_beta   90.00000000
_cell_angle_gamma   90.00000000
_symmetry_Int_Tables_number   1
_chemical_formula_structural   LiF
_chemical_formula_sum   'Li88 F88'
_cell_volume   2264.66747838
_cell_formula_units_Z   88
loop_
 _symmetry_equiv_pos_site_id
 _symmetry_equiv_pos_as_xyz
  1  'x, y, z'
loop_
 _atom_site_type_symbol
 _atom_site_label
 _atom_site_symmetry_multiplicity
 _atom_site_fract_x
 _atom_site_fract_y
 _atom_site_fract_z
 _atom_site_occupancy
  F  F0  1  0.13258404  0.65434683  0.33864132  1
  F  F1  1  0.86741596  0.34565317  0.33864132  1
  F  F2  1  0.36741596  0.15434683  0.66135868  1
  F  F3  1  0.63258404  0.84565317  0.66135868  1
  F  F4  1  0.86741596  0.34565317  0.66135868  1
  F  F5  1  0.13258404  0.65434683  0.66135868  1
  F  F6  1  0.63258404  0.84565317  0.33864132  1
  F  F7  1  0.36741596  0.15434683  0.33864132  1
  F  F8  1  0.35275121  0.20763593  0.09637491  1
  F  F9  1  0.64724879  0.79236407  0.09637491  1
  F  F10  1  0.14724879  0.70763593  0.90362509  1
  F  F11  1  0.85275121  0.29236407  0.90362509  1
  F  F12  1  0.64724879  0.79236407  0.90362509  1
  F  F13  1  0.35275121  0.20763593  0.90362509  1
  F  F14  1  0.85275121  0.29236407  0.09637491  1
  F  F15  1  0.14724879  0.70763593  0.09637491  1
  F  F16  1  0.71794349  0.13204765  0.62171460  1
  F  F17  1  0.28205651  0.86795235  0.62171460  1
  F  F18  1  0.78205651  0.63204765  0.37828540  1
  F  F19  1  0.21794349  0.36795235  0.37828540  1
  F  F20  1  0.28205651  0.86795235  0.37828540  1
  F  F21  1  0.71794349  0.13204765  0.37828540  1
  F  F22  1  0.21794349  0.36795235  0.62171460  1
  F  F23  1  0.78205651  0.63204765  0.62171460  1
  F  F24  1  0.00000000  0.50000000  0.00000000  1
  F  F25  1  0.50000000  0.00000000  0.00000000  1
  F  F26  1  0.81142782  0.47265852  0.27070226  1
  F  F27  1  0.18857218  0.52734148  0.27070226  1
  F  F28  1  0.68857218  0.97265852  0.72929774  1
  F  F29  1  0.31142782  0.02734148  0.72929774  1
  F  F30  1  0.18857218  0.52734148  0.72929774  1
  F  F31  1  0.81142782  0.47265852  0.72929774  1
  F  F32  1  0.31142782  0.02734148  0.27070226  1
  F  F33  1  0.68857218  0.97265852  0.27070226  1
  F  F34  1  0.55625976  0.75221682  0.25167363  1
  F  F35  1  0.44374024  0.24778318  0.25167363  1
  F  F36  1  0.94374024  0.25221682  0.74832637  1
  F  F37  1  0.05625976  0.74778318  0.74832637  1
  F  F38  1  0.44374024  0.24778318  0.74832637  1
  F  F39  1  0.55625976  0.75221682  0.74832637  1
  F  F40  1  0.05625976  0.74778318  0.25167363  1
  F  F41  1  0.94374024  0.25221682  0.25167363  1
  F  F42  1  0.27811228  0.16085603  0.17588428  1
  F  F43  1  0.72188772  0.83914397  0.17588428  1
  F  F44  1  0.22188772  0.66085603  0.82411572  1
  F  F45  1  0.77811228  0.33914397  0.82411572  1
  F  F46  1  0.72188772  0.83914397  0.82411572  1
  F  F47  1  0.27811228  0.16085603  0.82411572  1
  F  F48  1  0.77811228  0.33914397  0.17588428  1
  F  F49  1  0.22188772  0.66085603  0.17588428  1
  F  F50  1  0.94193214  0.26264201  0.33320501  1
  F  F51  1  0.05806786  0.73735799  0.33320501  1
  F  F52  1  0.55806786  0.76264201  0.66679499  1
  F  F53  1  0.44193214  0.23735799  0.66679499  1
  F  F54  1  0.05806786  0.73735799  0.66679499  1
  F  F55  1  0.94193214  0.26264201  0.66679499  1
  F  F56  1  0.44193214  0.23735799  0.33320501  1
  F  F57  1  0.55806786  0.76264201  0.33320501  1
  F  F58  1  0.00000000  0.50000000  0.50000000  1
  F  F59  1  0.50000000  0.00000000  0.50000000  1
  F  F60  1  0.00000000  0.00000000  0.22340745  1
  F  F61  1  0.50000000  0.50000000  0.77659255  1
  F  F62  1  0.00000000  0.00000000  0.77659255  1
  F  F63  1  0.50000000  0.50000000  0.22340745  1
  F  F64  1  0.37866154  0.08048436  0.78518061  1
  F  F65  1  0.62133846  0.91951564  0.78518061  1
  F  F66  1  0.12133846  0.58048436  0.21481939  1
  F  F67  1  0.87866154  0.41951564  0.21481939  1
  F  F68  1  0.62133846  0.91951564  0.21481939  1
  F  F69  1  0.37866154  0.08048436  0.21481939  1
  F  F70  1  0.87866154  0.41951564  0.78518061  1
  F  F71  1  0.12133846  0.58048436  0.78518061  1
  F  F72  1  0.41602684  0.71732869  0.50000000  1
  F  F73  1  0.58397316  0.28267131  0.50000000  1
  F  F74  1  0.08397316  0.21732869  0.50000000  1
  F  F75  1  0.91602684  0.78267131  0.50000000  1
  F  F76  1  0.24344108  0.55906264  0.47079474  1
  F  F77  1  0.75655892  0.44093736  0.47079474  1
  F  F78  1  0.25655892  0.05906264  0.52920526  1
  F  F79  1  0.74344108  0.94093736  0.52920526  1
  F  F80  1  0.75655892  0.44093736  0.52920526  1
  F  F81  1  0.24344108  0.55906264  0.52920526  1
  F  F82  1  0.74344108  0.94093736  0.47079474  1
  F  F83  1  0.25655892  0.05906264  0.47079474  1
  F  F84  1  0.00000000  0.00000000  0.84744974  1
  F  F85  1  0.50000000  0.50000000  0.15255026  1
  F  F86  1  0.00000000  0.00000000  0.15255026  1
  F  F87  1  0.50000000  0.50000000  0.84744974  1
  Li  Li88  1  0.56130378  0.07893346  0.70480287  1
  Li  Li89  1  -0.56130378  -0.07893346  0.70480287  1
  Li  Li90  1  -0.06130378  0.57893346  -0.70480287  1
  Li  Li91  1  1.06130378  0.42106654  -0.70480287  1
  Li  Li92  1  -0.56130378  -0.07893346  -0.70480287  1
  Li  Li93  1  0.56130378  0.07893346  -0.70480287  1
  Li  Li94  1  1.06130378  0.42106654  0.70480287  1
  Li  Li95  1  -0.06130378  0.57893346  0.70480287  1
  Li  Li96  1  0.19546299  0.09336160  0.00000000  1
  Li  Li97  1  0.80453701  0.90663840  0.00000000  1
  Li  Li98  1  0.30453701  0.59336160  0.00000000  1
  Li  Li99  1  0.69546299  0.40663840  0.00000000  1
  Li  Li100  1  0.08650143  0.06285944  0.19585596  1
  Li  Li101  1  0.91349857  0.93714056  0.19585596  1
  Li  Li102  1  0.41349857  0.56285944  0.80414404  1
  Li  Li103  1  0.58650143  0.43714056  0.80414404  1
  Li  Li104  1  0.91349857  0.93714056  0.80414404  1
  Li  Li105  1  0.08650143  0.06285944  0.80414404  1
  Li  Li106  1  0.58650143  0.43714056  0.19585596  1
  Li  Li107  1  0.41349857  0.56285944  0.19585596  1
  Li  Li108  1  0.92239426  0.50382907  0.50000000  1
  Li  Li109  1  0.07760574  0.49617093  0.50000000  1
  Li  Li110  1  0.57760574  0.00382907  0.50000000  1
  Li  Li111  1  0.42239426  0.99617093  0.50000000  1
  Li  Li112  1  0.96700586  0.43939862  0.00000000  1
  Li  Li113  1  0.03299414  0.56060138  0.00000000  1
  Li  Li114  1  0.53299414  0.93939862  0.00000000  1
  Li  Li115  1  0.46700586  0.06060138  0.00000000  1
  Li  Li116  1  0.95428099  0.65922906  0.80795064  1
  Li  Li117  1  0.04571901  0.34077094  0.80795064  1
  Li  Li118  1  0.54571901  0.15922906  0.19204936  1
  Li  Li119  1  0.45428099  0.84077094  0.19204936  1
  Li  Li120  1  0.04571901  0.34077094  0.19204936  1
  Li  Li121  1  0.95428099  0.65922906  0.19204936  1
  Li  Li122  1  0.45428099  0.84077094  0.80795064  1
  Li  Li123  1  0.54571901  0.15922906  0.80795064  1
  Li  Li124  1  0.77789520  0.52977504  0.17353428  1
  Li  Li125  1  0.22210480  0.47022496  0.17353428  1
  Li  Li126  1  0.72210480  0.02977504  0.82646572  1
  Li  Li127  1  0.27789520  0.97022496  0.82646572  1
  Li  Li128  1  0.22210480  0.47022496  0.82646572  1
  Li  Li129  1  0.77789520  0.52977504  0.82646572  1
  Li  Li130  1  0.27789520  0.97022496  0.17353428  1
  Li  Li131  1  0.72210480  0.02977504  0.17353428  1
  Li  Li132  1  0.00000000  0.00000000  0.00000000  1
  Li  Li133  1  0.50000000  0.50000000  0.00000000  1
  Li  Li134  1  0.00000000  0.50000000  0.10035791  1
  Li  Li135  1  0.50000000  0.00000000  0.89964209  1
  Li  Li136  1  0.00000000  0.50000000  0.89964209  1
  Li  Li137  1  0.50000000  0.00000000  0.10035791  1
  Li  Li138  1  0.00000000  0.50000000  0.74542162  1
  Li  Li139  1  0.50000000  0.00000000  0.25457838  1
  Li  Li140  1  0.00000000  0.50000000  0.25457838  1
  Li  Li141  1  0.50000000  0.00000000  0.74542162  1
  Li  Li142  1  0.90257652  0.71738829  0.27319460  1
  Li  Li143  1  0.09742348  0.28261171  0.27319460  1
  Li  Li144  1  0.59742348  0.21738829  0.72680540  1
  Li  Li145  1  0.40257652  0.78261171  0.72680540  1
  Li  Li146  1  0.09742348  0.28261171  0.72680540  1
  Li  Li147  1  0.90257652  0.71738829  0.72680540  1
  Li  Li148  1  0.40257652  0.78261171  0.27319460  1
  Li  Li149  1  0.59742348  0.21738829  0.27319460  1
  Li  Li150  1  0.49196049  0.40043048  0.25897135  1
  Li  Li151  1  0.50803951  0.59956952  0.25897135  1
  Li  Li152  1  0.00803951  0.90043048  0.74102865  1
  Li  Li153  1  0.99196049  0.09956952  0.74102865  1
  Li  Li154  1  0.50803951  0.59956952  0.74102865  1
  Li  Li155  1  0.49196049  0.40043048  0.74102865  1
  Li  Li156  1  0.99196049  0.09956952  0.25897135  1
  Li  Li157  1  0.00803951  0.90043048  0.25897135  1
  Li  Li158  1  0.72809944  0.15594473  0.21803720  1
  Li  Li159  1  0.27190056  0.84405527  0.21803720  1
  Li  Li160  1  0.77190056  0.65594473  0.78196280  1
  Li  Li161  1  0.22809944  0.34405527  0.78196280  1
  Li  Li162  1  0.27190056  0.84405527  0.78196280  1
  Li  Li163  1  0.72809944  0.15594473  0.78196280  1
  Li  Li164  1  0.22809944  0.34405527  0.21803720  1
  Li  Li165  1  0.77190056  0.65594473  0.21803720  1
  Li  Li166  1  0.26264280  0.22626767  0.50000000  1
  Li  Li167  1  0.73735720  0.77373233  0.50000000  1
  Li  Li168  1  0.23735720  0.72626767  0.50000000  1
  Li  Li169  1  0.76264280  0.27373233  0.50000000  1
  Li  Li170  1  0.00000000  0.00000000  0.35650628  1
  Li  Li171  1  0.50000000  0.50000000  0.64349372  1
  Li  Li172  1  0.00000000  0.00000000  0.64349372  1
  Li  Li173  1  0.50000000  0.50000000  0.35650628  1
  Li  Li174  1  0.00000000  0.00000000  0.50000000  1
  Li  Li175  1  0.50000000  0.50000000  0.50000000  1
