# generated using pymatgen
data_Li2YTe4P3
_symmetry_space_group_name_H-M   'P 1'
_cell_length_a   5.40395057
_cell_length_b   5.48242455
_cell_length_c   7.48008654
_cell_angle_alpha   95.31470113
_cell_angle_beta   101.57431414
_cell_angle_gamma   111.34704213
_symmetry_Int_Tables_number   1
_chemical_formula_structural   Li2YTe4P3
_chemical_formula_sum   'Li2 Y1 Te4 P3'
_cell_volume   198.84871551
_cell_formula_units_Z   1
loop_
 _symmetry_equiv_pos_site_id
 _symmetry_equiv_pos_as_xyz
  1  'x, y, z'
loop_
 _atom_site_type_symbol
 _atom_site_label
 _atom_site_symmetry_multiplicity
 _atom_site_fract_x
 _atom_site_fract_y
 _atom_site_fract_z
 _atom_site_occupancy
  Te  Te0  1  0.00000000  0.00000000  0.00000000  1
  Te  Te1  1  0.33300000  0.66700000  0.25000000  1
  Te  Te2  1  0.66700000  0.33300000  0.50000000  1
  Te  Te3  1  0.00000000  0.00000000  0.75000000  1
  P  P4  1  0.99352990  0.84113552  0.36733277  1
  P  P5  1  0.32160683  0.58814941  0.22344280  1
  P  P6  1  0.46799884  0.66582937  0.39049887  1
  Li  Li7  1  0.44210478  0.49493670  0.48916343  1
  Li  Li8  1  0.56847566  0.80056169  0.88112995  1
  Y  Y9  1  0.94690664  0.97387122  0.36394491  1
