# generated using pymatgen
data_LiF
_symmetry_space_group_name_H-M   'P 1'
_cell_length_a   7.47127457
_cell_length_b   7.47127457
_cell_length_c   11.93326514
_cell_angle_alpha   90.00000000
_cell_angle_beta   90.00000000
_cell_angle_gamma   120.00000000
_symmetry_Int_Tables_number   1
_chemical_formula_structural   LiF
_chemical_formula_sum   'Li26 F26'
_cell_volume   576.87180831
_cell_formula_units_Z   26
loop_
 _symmetry_equiv_pos_site_id
 _symmetry_equiv_pos_as_xyz
  1  'x, y, z'
loop_
 _atom_site_type_symbol
 _atom_site_label
 _atom_site_symmetry_multiplicity
 _atom_site_fract_x
 _atom_site_fract_y
 _atom_site_fract_z
 _atom_site_occupancy
  F  F0  1  0.50000000  0.00000000  -0.00000000  1
  F  F1  1  0.00000000  0.50000000  0.00000000  1
  F  F2  1  0.50000000  0.50000000  -0.00000000  1
  F  F3  1  0.50000000  0.00000000  0.50000000  1
  F  F4  1  0.00000000  0.50000000  0.50000000  1
  F  F5  1  0.50000000  0.50000000  0.50000000  1
  F  F6  1  0.25151048  0.50302095  0.25000000  1
  F  F7  1  0.49697905  0.74848952  0.25000000  1
  F  F8  1  0.25151048  0.74848952  0.25000000  1
  F  F9  1  0.74848952  0.49697905  0.75000000  1
  F  F10  1  0.50302095  0.25151048  0.75000000  1
  F  F11  1  0.74848952  0.25151048  0.75000000  1
  F  F12  1  0.00000000  0.00000000  0.95294983  1
  F  F13  1  0.00000000  0.00000000  0.45294983  1
  F  F14  1  0.00000000  0.00000000  0.04705017  1
  F  F15  1  0.00000000  0.00000000  0.54705017  1
  F  F16  1  0.88599395  0.77198790  0.25000000  1
  F  F17  1  0.22801210  0.11400605  0.25000000  1
  F  F18  1  0.88599395  0.11400605  0.25000000  1
  F  F19  1  0.11400605  0.22801210  0.75000000  1
  F  F20  1  0.77198790  0.88599395  0.75000000  1
  F  F21  1  0.11400605  0.88599395  0.75000000  1
  F  F22  1  0.33333333  0.66666667  0.89388403  1
  F  F23  1  0.66666667  0.33333333  0.39388403  1
  F  F24  1  0.66666667  0.33333333  0.10611597  1
  F  F25  1  0.33333333  0.66666667  0.60611597  1
  Li  Li26  1  0.33333333  0.66666667  0.75000000  1
  Li  Li27  1  0.66666667  0.33333333  0.25000000  1
  Li  Li28  1  0.19944349  0.39888697  0.94571258  1
  Li  Li29  1  -0.39888697  -0.19944349  0.94571258  1
  Li  Li30  1  0.19944349  -0.19944349  0.94571258  1
  Li  Li31  1  -0.19944349  -0.39888697  1.44571258  1
  Li  Li32  1  0.39888697  0.19944349  1.44571258  1
  Li  Li33  1  -0.19944349  0.19944349  1.44571258  1
  Li  Li34  1  0.39888697  0.19944349  -0.94571258  1
  Li  Li35  1  -0.19944349  -0.39888697  -0.94571258  1
  Li  Li36  1  -0.19944349  0.19944349  -0.94571258  1
  Li  Li37  1  -0.39888697  -0.19944349  -0.44571258  1
  Li  Li38  1  0.19944349  0.39888697  -0.44571258  1
  Li  Li39  1  0.19944349  -0.19944349  -0.44571258  1
  Li  Li40  1  0.24764787  0.00000000  -0.00000000  1
  Li  Li41  1  0.00000000  0.24764787  -0.00000000  1
  Li  Li42  1  0.75235213  0.75235213  -0.00000000  1
  Li  Li43  1  0.75235213  0.00000000  0.50000000  1
  Li  Li44  1  0.00000000  0.75235213  0.50000000  1
  Li  Li45  1  0.24764787  0.24764787  0.50000000  1
  Li  Li46  1  0.75235213  0.00000000  -0.00000000  1
  Li  Li47  1  0.00000000  0.75235213  0.00000000  1
  Li  Li48  1  0.24764787  0.24764787  -0.00000000  1
  Li  Li49  1  0.24764787  0.00000000  0.50000000  1
  Li  Li50  1  0.00000000  0.24764787  0.50000000  1
  Li  Li51  1  0.75235213  0.75235213  0.50000000  1
