# generated using pymatgen
data_Li3YScTiF
_symmetry_space_group_name_H-M   'P 1'
_cell_length_a   3.30090345
_cell_length_b   3.13386255
_cell_length_c   5.54235482
_cell_angle_alpha   108.56829911
_cell_angle_beta   102.36337991
_cell_angle_gamma   106.68714906
_symmetry_Int_Tables_number   1
_chemical_formula_structural   Li3YScTiF
_chemical_formula_sum   'Li3 Y1 Sc1 Ti1 F1'
_cell_volume   49.02409962
_cell_formula_units_Z   1
loop_
 _symmetry_equiv_pos_site_id
 _symmetry_equiv_pos_as_xyz
  1  'x, y, z'
loop_
 _atom_site_type_symbol
 _atom_site_label
 _atom_site_symmetry_multiplicity
 _atom_site_fract_x
 _atom_site_fract_y
 _atom_site_fract_z
 _atom_site_occupancy
  F  F0  1  0.12500000  0.00000000  0.25000000  1
  Sc  Sc1  1  0.00000000  0.00000000  0.00000000  1
  Ti  Ti2  1  0.37500000  0.00000000  0.25000000  1
  Y  Y3  1  0.25000000  0.25000000  0.25000000  1
  Li  Li4  1  0.00000000  0.25000000  0.12500000  1
  Li  Li5  1  0.14707339  0.69821267  0.18008790  1
  Li  Li6  1  0.70980889  0.42499886  0.71517813  1
