# generated using pymatgen
data_LiY2Te4(As2P)2
_symmetry_space_group_name_H-M   'P 1'
_cell_length_a   4.85225186
_cell_length_b   4.86194606
_cell_length_c   7.00174281
_cell_angle_alpha   95.08902952
_cell_angle_beta   101.08284831
_cell_angle_gamma   110.44060899
_symmetry_Int_Tables_number   1
_chemical_formula_structural   LiY2Te4(As2P)2
_chemical_formula_sum   'Li1 Y2 Te4 As4 P2'
_cell_volume   149.69649433
_cell_formula_units_Z   1
loop_
 _symmetry_equiv_pos_site_id
 _symmetry_equiv_pos_as_xyz
  1  'x, y, z'
loop_
 _atom_site_type_symbol
 _atom_site_label
 _atom_site_symmetry_multiplicity
 _atom_site_fract_x
 _atom_site_fract_y
 _atom_site_fract_z
 _atom_site_occupancy
  Te  Te0  1  0.00000000  0.00000000  0.00000000  1
  Te  Te1  1  0.50000000  0.50000000  0.50000000  1
  Te  Te2  1  0.25000000  0.25000000  0.25000000  1
  Te  Te3  1  0.75000000  0.25000000  0.00000000  1
  P  P4  1  0.25000000  0.75000000  0.50000000  1
  P  P5  1  0.56450956  0.31758852  0.23523022  1
  As  As6  1  0.54187522  0.93713316  0.50068317  1
  As  As7  1  0.32270447  0.87417891  0.62601974  1
  As  As8  1  0.23206361  0.47457926  0.02759369  1
  As  As9  1  0.49707862  0.99048213  0.02737800  1
  Li  Li10  1  0.08216912  0.09765250  0.70360006  1
  Y  Y11  1  0.40307721  0.21548943  0.46393718  1
  Y  Y12  1  0.12133344  0.10850932  0.22181968  1
