# generated using pymatgen
data_LiF
_symmetry_space_group_name_H-M   'P 1'
_cell_length_a   17.97516188
_cell_length_b   17.97516188
_cell_length_c   4.51283725
_cell_angle_alpha   90.00000000
_cell_angle_beta   90.00000000
_cell_angle_gamma   120.00000000
_symmetry_Int_Tables_number   1
_chemical_formula_structural   LiF
_chemical_formula_sum   'Li40 F40'
_cell_volume   1262.77484969
_cell_formula_units_Z   40
loop_
 _symmetry_equiv_pos_site_id
 _symmetry_equiv_pos_as_xyz
  1  'x, y, z'
loop_
 _atom_site_type_symbol
 _atom_site_label
 _atom_site_symmetry_multiplicity
 _atom_site_fract_x
 _atom_site_fract_y
 _atom_site_fract_z
 _atom_site_occupancy
  F  F0  1  0.33116242  0.14055249  0.59535029  1
  F  F1  1  0.85944751  0.19060993  0.59535029  1
  F  F2  1  0.80939007  0.66883758  0.59535029  1
  F  F3  1  0.66883758  0.85944751  0.09535029  1
  F  F4  1  0.14055249  0.80939007  0.09535029  1
  F  F5  1  0.19060993  0.33116242  0.09535029  1
  F  F6  1  0.66883758  0.85944751  0.40464971  1
  F  F7  1  0.14055249  0.80939007  0.40464971  1
  F  F8  1  0.19060993  0.33116242  0.40464971  1
  F  F9  1  0.33116242  0.14055249  0.90464971  1
  F  F10  1  0.85944751  0.19060993  0.90464971  1
  F  F11  1  0.80939007  0.66883758  0.90464971  1
  F  F12  1  0.42826827  0.80352014  0.59751911  1
  F  F13  1  0.19647986  0.62474813  0.59751911  1
  F  F14  1  0.37525187  0.57173173  0.59751911  1
  F  F15  1  0.57173173  0.19647986  0.09751911  1
  F  F16  1  0.80352014  0.37525187  0.09751911  1
  F  F17  1  0.62474813  0.42826827  0.09751911  1
  F  F18  1  0.57173173  0.19647986  0.40248089  1
  F  F19  1  0.80352014  0.37525187  0.40248089  1
  F  F20  1  0.62474813  0.42826827  0.40248089  1
  F  F21  1  0.42826827  0.80352014  0.90248089  1
  F  F22  1  0.19647986  0.62474813  0.90248089  1
  F  F23  1  0.37525187  0.57173173  0.90248089  1
  F  F24  1  0.48180857  0.79335287  0.46255112  1
  F  F25  1  0.20664713  0.68845570  0.46255112  1
  F  F26  1  0.31154430  0.51819143  0.46255112  1
  F  F27  1  0.51819143  0.20664713  0.96255112  1
  F  F28  1  0.79335287  0.31154430  0.96255112  1
  F  F29  1  0.68845570  0.48180857  0.96255112  1
  F  F30  1  0.51819143  0.20664713  0.53744888  1
  F  F31  1  0.79335287  0.31154430  0.53744888  1
  F  F32  1  0.68845570  0.48180857  0.53744888  1
  F  F33  1  0.48180857  0.79335287  0.03744888  1
  F  F34  1  0.20664713  0.68845570  0.03744888  1
  F  F35  1  0.31154430  0.51819143  0.03744888  1
  F  F36  1  0.33333333  0.66666667  0.33613947  1
  F  F37  1  0.66666667  0.33333333  0.83613947  1
  F  F38  1  0.66666667  0.33333333  0.66386053  1
  F  F39  1  0.33333333  0.66666667  0.16386053  1
  Li  Li40  1  0.10622717  0.69545516  0.39832346  1
  Li  Li41  1  -0.69545516  -0.58922799  0.39832346  1
  Li  Li42  1  0.58922799  -0.10622717  0.39832346  1
  Li  Li43  1  -0.10622717  -0.69545516  0.89832346  1
  Li  Li44  1  0.69545516  0.58922799  0.89832346  1
  Li  Li45  1  -0.58922799  0.10622717  0.89832346  1
  Li  Li46  1  -0.10622717  -0.69545516  -0.39832346  1
  Li  Li47  1  0.69545516  0.58922799  -0.39832346  1
  Li  Li48  1  -0.58922799  0.10622717  -0.39832346  1
  Li  Li49  1  0.10622717  0.69545516  0.10167654  1
  Li  Li50  1  -0.69545516  -0.58922799  0.10167654  1
  Li  Li51  1  0.58922799  -0.10622717  0.10167654  1
  Li  Li52  1  0.57066934  0.13372790  0.50910704  1
  Li  Li53  1  0.86627210  0.43694144  0.50910704  1
  Li  Li54  1  0.56305856  0.42933066  0.50910704  1
  Li  Li55  1  0.42933066  0.86627210  0.00910704  1
  Li  Li56  1  0.13372790  0.56305856  0.00910704  1
  Li  Li57  1  0.43694144  0.57066934  0.00910704  1
  Li  Li58  1  0.42933066  0.86627210  0.49089296  1
  Li  Li59  1  0.13372790  0.56305856  0.49089296  1
  Li  Li60  1  0.43694144  0.57066934  0.49089296  1
  Li  Li61  1  0.57066934  0.13372790  0.99089296  1
  Li  Li62  1  0.86627210  0.43694144  0.99089296  1
  Li  Li63  1  0.56305856  0.42933066  0.99089296  1
  Li  Li64  1  0.37047295  0.24155274  0.45840994  1
  Li  Li65  1  0.75844726  0.12892021  0.45840994  1
  Li  Li66  1  0.87107979  0.62952705  0.45840994  1
  Li  Li67  1  0.62952705  0.75844726  0.95840994  1
  Li  Li68  1  0.24155274  0.87107979  0.95840994  1
  Li  Li69  1  0.12892021  0.37047295  0.95840994  1
  Li  Li70  1  0.62952705  0.75844726  0.54159006  1
  Li  Li71  1  0.24155274  0.87107979  0.54159006  1
  Li  Li72  1  0.12892021  0.37047295  0.54159006  1
  Li  Li73  1  0.37047295  0.24155274  0.04159006  1
  Li  Li74  1  0.75844726  0.12892021  0.04159006  1
  Li  Li75  1  0.87107979  0.62952705  0.04159006  1
  Li  Li76  1  0.00000000  0.00000000  0.25000000  1
  Li  Li77  1  0.00000000  0.00000000  0.75000000  1
  Li  Li78  1  0.66666667  0.33333333  0.25000000  1
  Li  Li79  1  0.33333333  0.66666667  0.75000000  1
