# generated using pymatgen
data_Li2Sb2P2Se
_symmetry_space_group_name_H-M   'P 1'
_cell_length_a   5.64632853
_cell_length_b   5.87193721
_cell_length_c   6.79266661
_cell_angle_alpha   93.01164828
_cell_angle_beta   94.36782722
_cell_angle_gamma   98.66065707
_symmetry_Int_Tables_number   1
_chemical_formula_structural   Li2Sb2P2Se
_chemical_formula_sum   'Li2 Sb2 P2 Se1'
_cell_volume   221.52700359
_cell_formula_units_Z   1
loop_
 _symmetry_equiv_pos_site_id
 _symmetry_equiv_pos_as_xyz
  1  'x, y, z'
loop_
 _atom_site_type_symbol
 _atom_site_label
 _atom_site_symmetry_multiplicity
 _atom_site_fract_x
 _atom_site_fract_y
 _atom_site_fract_z
 _atom_site_occupancy
  Se  Se0  1  0.00000000  0.00000000  0.00000000  1
  P  P1  1  0.50000000  0.50000000  0.50000000  1
  P  P2  1  0.50000000  0.50000000  0.00000000  1
  Li  Li3  1  0.50000000  0.00000000  0.50000000  1
  Li  Li4  1  0.00000000  0.50000000  0.50000000  1
  Sb  Sb5  1  0.19655425  0.31228975  0.08875049  1
  Sb  Sb6  1  0.70251003  0.18055851  0.41929139  1
