# generated using pymatgen
data_Li2AlOF
_symmetry_space_group_name_H-M   'P 1'
_cell_length_a   3.30998309
_cell_length_b   3.19036235
_cell_length_c   5.71711371
_cell_angle_alpha   103.16968847
_cell_angle_beta   106.96268592
_cell_angle_gamma   110.92232990
_symmetry_Int_Tables_number   1
_chemical_formula_structural   Li2AlOF
_chemical_formula_sum   'Li2 Al1 O1 F1'
_cell_volume   50.07602462
_cell_formula_units_Z   1
loop_
 _symmetry_equiv_pos_site_id
 _symmetry_equiv_pos_as_xyz
  1  'x, y, z'
loop_
 _atom_site_type_symbol
 _atom_site_label
 _atom_site_symmetry_multiplicity
 _atom_site_fract_x
 _atom_site_fract_y
 _atom_site_fract_z
 _atom_site_occupancy
  F  F0  1  0.00000000  0.00000000  0.00000000  1
  O  O1  1  0.33300000  0.66700000  0.25000000  1
  Al  Al2  1  0.66700000  0.33300000  0.50000000  1
  Li  Li3  1  0.00000000  0.00000000  0.75000000  1
  Li  Li4  1  0.99830809  0.72031134  0.77819849  1
