# generated using pymatgen
data_LiF
_symmetry_space_group_name_H-M   'P 1'
_cell_length_a   5.50511426
_cell_length_b   5.50511426
_cell_length_c   24.47899588
_cell_angle_alpha   90.00000000
_cell_angle_beta   90.00000000
_cell_angle_gamma   120.00000000
_symmetry_Int_Tables_number   1
_chemical_formula_structural   LiF
_chemical_formula_sum   'Li17 F17'
_cell_volume   642.47599407
_cell_formula_units_Z   17
loop_
 _symmetry_equiv_pos_site_id
 _symmetry_equiv_pos_as_xyz
  1  'x, y, z'
loop_
 _atom_site_type_symbol
 _atom_site_label
 _atom_site_symmetry_multiplicity
 _atom_site_fract_x
 _atom_site_fract_y
 _atom_site_fract_z
 _atom_site_occupancy
  F  F0  1  0.33333333  0.66666667  0.09524317  1
  F  F1  1  0.33333333  0.66666667  0.90475683  1
  F  F2  1  0.06799243  0.89553669  0.07939300  1
  F  F3  1  0.10446331  0.17245574  0.07939300  1
  F  F4  1  0.82754426  0.93200757  0.07939300  1
  F  F5  1  0.10446331  0.93200757  0.92060700  1
  F  F6  1  0.82754426  0.89553669  0.92060700  1
  F  F7  1  0.06799243  0.17245574  0.92060700  1
  F  F8  1  0.55363788  0.44636212  0.50000000  1
  F  F9  1  0.55363788  0.10727575  0.50000000  1
  F  F10  1  0.89272425  0.44636212  0.50000000  1
  F  F11  1  0.73761224  0.54797813  0.26733289  1
  F  F12  1  0.45202187  0.18963411  0.26733289  1
  F  F13  1  0.81036589  0.26238776  0.26733289  1
  F  F14  1  0.45202187  0.26238776  0.73266711  1
  F  F15  1  0.81036589  0.54797813  0.73266711  1
  F  F16  1  0.73761224  0.18963411  0.73266711  1
  Li  Li17  1  0.66666667  0.33333333  0.50000000  1
  Li  Li18  1  0.28611223  0.86256610  0.40996843  1
  Li  Li19  1  -0.86256610  -0.57645387  0.40996843  1
  Li  Li20  1  0.57645387  -0.28611223  0.40996843  1
  Li  Li21  1  -0.86256610  -0.28611223  -0.40996843  1
  Li  Li22  1  0.57645387  0.86256610  -0.40996843  1
  Li  Li23  1  0.28611223  -0.57645387  -0.40996843  1
  Li  Li24  1  0.58643596  0.07160535  0.03824276  1
  Li  Li25  1  0.92839465  0.51483062  0.03824276  1
  Li  Li26  1  0.48516938  0.41356404  0.03824276  1
  Li  Li27  1  0.92839465  0.41356404  0.96175724  1
  Li  Li28  1  0.48516938  0.07160535  0.96175724  1
  Li  Li29  1  0.58643596  0.51483062  0.96175724  1
  Li  Li30  1  0.00000000  0.00000000  0.50000000  1
  Li  Li31  1  0.33333333  0.66666667  0.50000000  1
  Li  Li32  1  0.66666667  0.33333333  0.57052772  1
  Li  Li33  1  0.66666667  0.33333333  0.42947228  1
