# generated using pymatgen
data_Li3Y2MoP3Se2
_symmetry_space_group_name_H-M   'P 1'
_cell_length_a   6.23953874
_cell_length_b   6.48426019
_cell_length_c   7.51929983
_cell_angle_alpha   92.57316094
_cell_angle_beta   95.60380958
_cell_angle_gamma   100.33536482
_symmetry_Int_Tables_number   1
_chemical_formula_structural   Li3Y2MoP3Se2
_chemical_formula_sum   'Li3 Y2 Mo1 P3 Se2'
_cell_volume   297.24949037
_cell_formula_units_Z   1
loop_
 _symmetry_equiv_pos_site_id
 _symmetry_equiv_pos_as_xyz
  1  'x, y, z'
loop_
 _atom_site_type_symbol
 _atom_site_label
 _atom_site_symmetry_multiplicity
 _atom_site_fract_x
 _atom_site_fract_y
 _atom_site_fract_z
 _atom_site_occupancy
  Se  Se0  1  0.00000000  0.00000000  0.00000000  1
  Se  Se1  1  0.50000000  0.50000000  0.50000000  1
  P  P2  1  0.25000000  0.25000000  0.25000000  1
  P  P3  1  0.75000000  0.25000000  0.00000000  1
  P  P4  1  0.25000000  0.75000000  0.50000000  1
  Mo  Mo5  1  0.74082465  0.02674618  0.39613807  1
  Li  Li6  1  0.61463715  0.65140328  0.73243025  1
  Li  Li7  1  0.35867758  0.58565774  0.45204501  1
  Li  Li8  1  0.93105818  0.67537926  0.54525928  1
  Y  Y9  1  0.34448431  0.13292488  0.74946914  1
  Y  Y10  1  0.38373015  0.59599702  0.67488230  1
