# generated using pymatgen
data_LiF
_symmetry_space_group_name_H-M   'P 1'
_cell_length_a   6.49061165
_cell_length_b   16.90702796
_cell_length_c   5.72390971
_cell_angle_alpha   90.00000000
_cell_angle_beta   90.00000000
_cell_angle_gamma   90.00000000
_symmetry_Int_Tables_number   1
_chemical_formula_structural   LiF
_chemical_formula_sum   'Li24 F24'
_cell_volume   628.12440854
_cell_formula_units_Z   24
loop_
 _symmetry_equiv_pos_site_id
 _symmetry_equiv_pos_as_xyz
  1  'x, y, z'
loop_
 _atom_site_type_symbol
 _atom_site_label
 _atom_site_symmetry_multiplicity
 _atom_site_fract_x
 _atom_site_fract_y
 _atom_site_fract_z
 _atom_site_occupancy
  F  F0  1  0.04112631  0.25000000  0.43859142  1
  F  F1  1  0.45887369  0.75000000  0.93859142  1
  F  F2  1  0.95887369  0.75000000  0.56140858  1
  F  F3  1  0.54112631  0.25000000  0.06140858  1
  F  F4  1  0.50304387  0.25000000  0.56844888  1
  F  F5  1  0.99695613  0.75000000  0.06844888  1
  F  F6  1  0.49695613  0.75000000  0.43155112  1
  F  F7  1  0.00304387  0.25000000  0.93155112  1
  F  F8  1  0.10632206  0.25000000  0.92386201  1
  F  F9  1  0.39367794  0.75000000  0.42386201  1
  F  F10  1  0.89367794  0.75000000  0.07613799  1
  F  F11  1  0.60632206  0.25000000  0.57613799  1
  F  F12  1  0.49489480  0.18372700  0.51662901  1
  F  F13  1  0.00510520  0.81627300  0.01662901  1
  F  F14  1  0.50510520  0.68372700  0.48337099  1
  F  F15  1  0.99489480  0.31627300  0.98337099  1
  F  F16  1  0.50510520  0.81627300  0.48337099  1
  F  F17  1  0.99489480  0.18372700  0.98337099  1
  F  F18  1  0.49489480  0.31627300  0.51662901  1
  F  F19  1  0.00510520  0.68372700  0.01662901  1
  F  F20  1  0.48496063  0.25000000  0.94652090  1
  F  F21  1  0.01503937  0.75000000  0.44652090  1
  F  F22  1  0.51503937  0.75000000  0.05347910  1
  F  F23  1  0.98496063  0.25000000  0.55347910  1
  Li  Li24  1  0.19032570  0.79822694  0.82045120  1
  Li  Li25  1  0.30967430  -0.79822694  1.32045120  1
  Li  Li26  1  -0.19032570  1.29822694  -0.82045120  1
  Li  Li27  1  0.69032570  -0.29822694  -0.32045120  1
  Li  Li28  1  -0.19032570  -0.79822694  -0.82045120  1
  Li  Li29  1  0.69032570  0.79822694  -0.32045120  1
  Li  Li30  1  0.19032570  -0.29822694  0.82045120  1
  Li  Li31  1  0.30967430  1.29822694  1.32045120  1
  Li  Li32  1  0.00000000  0.00000000  0.00000000  1
  Li  Li33  1  0.50000000  0.00000000  0.50000000  1
  Li  Li34  1  0.00000000  0.50000000  0.00000000  1
  Li  Li35  1  0.50000000  0.50000000  0.50000000  1
  Li  Li36  1  0.01575937  0.16159478  0.21303610  1
  Li  Li37  1  0.48424063  0.83840522  0.71303610  1
  Li  Li38  1  0.98424063  0.66159478  0.78696390  1
  Li  Li39  1  0.51575937  0.33840522  0.28696390  1
  Li  Li40  1  0.98424063  0.83840522  0.78696390  1
  Li  Li41  1  0.51575937  0.16159478  0.28696390  1
  Li  Li42  1  0.01575937  0.33840522  0.21303610  1
  Li  Li43  1  0.48424063  0.66159478  0.71303610  1
  Li  Li44  1  0.00000000  0.00000000  0.50000000  1
  Li  Li45  1  0.50000000  0.00000000  -0.00000000  1
  Li  Li46  1  0.00000000  0.50000000  0.50000000  1
  Li  Li47  1  0.50000000  0.50000000  -0.00000000  1
