# generated using pymatgen
data_LiF
_symmetry_space_group_name_H-M   'P 1'
_cell_length_a   9.36700135
_cell_length_b   9.36700135
_cell_length_c   5.73529638
_cell_angle_alpha   90.00000000
_cell_angle_beta   90.00000000
_cell_angle_gamma   120.00000000
_symmetry_Int_Tables_number   1
_chemical_formula_structural   LiF
_chemical_formula_sum   'Li15 F15'
_cell_volume   435.80043848
_cell_formula_units_Z   15
loop_
 _symmetry_equiv_pos_site_id
 _symmetry_equiv_pos_as_xyz
  1  'x, y, z'
loop_
 _atom_site_type_symbol
 _atom_site_label
 _atom_site_symmetry_multiplicity
 _atom_site_fract_x
 _atom_site_fract_y
 _atom_site_fract_z
 _atom_site_occupancy
  F  F0  1  0.67225666  0.25893662  0.14368860  1
  F  F1  1  0.74106338  0.41332003  0.14368860  1
  F  F2  1  0.58667997  0.32774334  0.14368860  1
  F  F3  1  0.74106338  0.32774334  0.85631140  1
  F  F4  1  0.58667997  0.25893662  0.85631140  1
  F  F5  1  0.67225666  0.41332003  0.85631140  1
  F  F6  1  0.83755716  0.00866933  0.54023068  1
  F  F7  1  0.99133067  0.82888783  0.54023068  1
  F  F8  1  0.17111217  0.16244284  0.54023068  1
  F  F9  1  0.99133067  0.16244284  0.45976932  1
  F  F10  1  0.17111217  0.00866933  0.45976932  1
  F  F11  1  0.83755716  0.82888783  0.45976932  1
  F  F12  1  0.86614555  0.13385445  0.50000000  1
  F  F13  1  0.86614555  0.73229111  0.50000000  1
  F  F14  1  0.26770889  0.13385445  0.50000000  1
  Li  Li15  1  0.92874790  0.91480070  0.37941786  1
  Li  Li16  1  -0.91480070  0.01394720  0.37941786  1
  Li  Li17  1  -0.01394720  -0.92874790  0.37941786  1
  Li  Li18  1  -0.91480070  -0.92874790  -0.37941786  1
  Li  Li19  1  -0.01394720  0.91480070  -0.37941786  1
  Li  Li20  1  0.92874790  0.01394720  -0.37941786  1
  Li  Li21  1  0.90772206  0.55631327  0.98956442  1
  Li  Li22  1  0.44368673  0.35140879  0.98956442  1
  Li  Li23  1  0.64859121  0.09227794  0.98956442  1
  Li  Li24  1  0.44368673  0.09227794  0.01043558  1
  Li  Li25  1  0.64859121  0.55631327  0.01043558  1
  Li  Li26  1  0.90772206  0.35140879  0.01043558  1
  Li  Li27  1  0.17872816  0.82127184  0.00000000  1
  Li  Li28  1  0.17872816  0.35745631  0.00000000  1
  Li  Li29  1  0.64254369  0.82127184  0.00000000  1
