# generated using pymatgen
data_Li3Y2(P2Se)2
_symmetry_space_group_name_H-M   'P 1'
_cell_length_a   5.72149987
_cell_length_b   6.06839543
_cell_length_c   7.47942227
_cell_angle_alpha   93.41499608
_cell_angle_beta   97.43715149
_cell_angle_gamma   103.71668198
_symmetry_Int_Tables_number   1
_chemical_formula_structural   Li3Y2(P2Se)2
_chemical_formula_sum   'Li3 Y2 P4 Se2'
_cell_volume   249.05881719
_cell_formula_units_Z   1
loop_
 _symmetry_equiv_pos_site_id
 _symmetry_equiv_pos_as_xyz
  1  'x, y, z'
loop_
 _atom_site_type_symbol
 _atom_site_label
 _atom_site_symmetry_multiplicity
 _atom_site_fract_x
 _atom_site_fract_y
 _atom_site_fract_z
 _atom_site_occupancy
  Se  Se0  1  0.12500000  0.12500000  0.12500000  1
  Se  Se1  1  0.50000000  0.50000000  0.50000000  1
  P  P2  1  0.25000000  0.25000000  0.25000000  1
  P  P3  1  0.75000000  0.75000000  0.75000000  1
  P  P4  1  0.57957804  0.09677657  0.26613959  1
  P  P5  1  0.93669738  0.96773503  0.76810259  1
  Li  Li6  1  0.65096590  0.03578164  0.69573983  1
  Li  Li7  1  0.98864920  0.13881277  0.25340444  1
  Li  Li8  1  0.40104444  0.60884751  0.69555293  1
  Y  Y9  1  0.72249948  0.32973119  0.47260190  1
  Y  Y10  1  0.94527654  0.50688839  0.94069643  1
