# generated using pymatgen
data_LiY2MoP3
_symmetry_space_group_name_H-M   'P 1'
_cell_length_a   5.20871276
_cell_length_b   5.35373163
_cell_length_c   7.27719401
_cell_angle_alpha   94.57065932
_cell_angle_beta   99.95394578
_cell_angle_gamma   108.35852192
_symmetry_Int_Tables_number   1
_chemical_formula_structural   LiY2MoP3
_chemical_formula_sum   'Li1 Y2 Mo1 P3'
_cell_volume   187.74160005
_cell_formula_units_Z   1
loop_
 _symmetry_equiv_pos_site_id
 _symmetry_equiv_pos_as_xyz
  1  'x, y, z'
loop_
 _atom_site_type_symbol
 _atom_site_label
 _atom_site_symmetry_multiplicity
 _atom_site_fract_x
 _atom_site_fract_y
 _atom_site_fract_z
 _atom_site_occupancy
  Y  Y0  1  0.12500000  0.12500000  0.12500000  1
  Y  Y1  1  0.50000000  0.50000000  0.50000000  1
  P  P2  1  0.25000000  0.25000000  0.25000000  1
  P  P3  1  0.75000000  0.75000000  0.75000000  1
  P  P4  1  0.53838287  0.17583384  0.38208340  1
  Mo  Mo5  1  0.18013885  0.05710683  0.90704372  1
  Li  Li6  1  0.97469455  0.65963801  0.61907932  1
