# generated using pymatgen
data_LiY2(Te2P)2
_symmetry_space_group_name_H-M   'P 1'
_cell_length_a   4.68074826
_cell_length_b   4.85995357
_cell_length_c   6.73051036
_cell_angle_alpha   95.07149808
_cell_angle_beta   99.68099779
_cell_angle_gamma   108.23159562
_symmetry_Int_Tables_number   1
_chemical_formula_structural   LiY2(Te2P)2
_chemical_formula_sum   'Li1 Y2 Te4 P2'
_cell_volume   141.71509292
_cell_formula_units_Z   1
loop_
 _symmetry_equiv_pos_site_id
 _symmetry_equiv_pos_as_xyz
  1  'x, y, z'
loop_
 _atom_site_type_symbol
 _atom_site_label
 _atom_site_symmetry_multiplicity
 _atom_site_fract_x
 _atom_site_fract_y
 _atom_site_fract_z
 _atom_site_occupancy
  Te  Te0  1  0.12500000  0.00000000  0.25000000  1
  Te  Te1  1  0.00000000  0.00000000  0.00000000  1
  Te  Te2  1  0.37500000  0.00000000  0.25000000  1
  Te  Te3  1  0.25000000  0.25000000  0.25000000  1
  Y  Y4  1  0.00000000  0.25000000  0.12500000  1
  Y  Y5  1  0.47594819  0.90522146  0.45333170  1
  P  P6  1  0.43861341  0.08172229  0.82790160  1
  P  P7  1  0.64566334  0.96652801  0.12739824  1
  Li  Li8  1  0.11333795  0.24947319  0.24300391  1
