# generated using pymatgen
data_LiF
_symmetry_space_group_name_H-M   'P 1'
_cell_length_a   11.69708021
_cell_length_b   8.39102028
_cell_length_c   15.66489985
_cell_angle_alpha   90.00000000
_cell_angle_beta   90.00000000
_cell_angle_gamma   90.00000000
_symmetry_Int_Tables_number   1
_chemical_formula_structural   LiF
_chemical_formula_sum   'Li60 F60'
_cell_volume   1537.51677036
_cell_formula_units_Z   60
loop_
 _symmetry_equiv_pos_site_id
 _symmetry_equiv_pos_as_xyz
  1  'x, y, z'
loop_
 _atom_site_type_symbol
 _atom_site_label
 _atom_site_symmetry_multiplicity
 _atom_site_fract_x
 _atom_site_fract_y
 _atom_site_fract_z
 _atom_site_occupancy
  F  F0  1  0.62202747  0.00147053  0.64810529  1
  F  F1  1  0.87797253  0.99852947  0.14810529  1
  F  F2  1  0.37797253  0.50147053  0.35189471  1
  F  F3  1  0.12202747  0.49852947  0.85189471  1
  F  F4  1  0.37797253  0.99852947  0.35189471  1
  F  F5  1  0.12202747  0.00147053  0.85189471  1
  F  F6  1  0.62202747  0.49852947  0.64810529  1
  F  F7  1  0.87797253  0.50147053  0.14810529  1
  F  F8  1  0.04042082  0.62338049  0.28475621  1
  F  F9  1  0.45957918  0.37661951  0.78475621  1
  F  F10  1  0.95957918  0.12338049  0.71524379  1
  F  F11  1  0.54042082  0.87661951  0.21524379  1
  F  F12  1  0.95957918  0.37661951  0.71524379  1
  F  F13  1  0.54042082  0.62338049  0.21524379  1
  F  F14  1  0.04042082  0.87661951  0.28475621  1
  F  F15  1  0.45957918  0.12338049  0.78475621  1
  F  F16  1  0.89083295  0.25000000  0.48886334  1
  F  F17  1  0.60916705  0.75000000  0.98886334  1
  F  F18  1  0.10916705  0.75000000  0.51113666  1
  F  F19  1  0.39083295  0.25000000  0.01113666  1
  F  F20  1  0.82580774  0.79132453  0.82269718  1
  F  F21  1  0.67419226  0.20867547  0.32269718  1
  F  F22  1  0.17419226  0.29132453  0.17730282  1
  F  F23  1  0.32580774  0.70867547  0.67730282  1
  F  F24  1  0.17419226  0.20867547  0.17730282  1
  F  F25  1  0.32580774  0.79132453  0.67730282  1
  F  F26  1  0.82580774  0.70867547  0.82269718  1
  F  F27  1  0.67419226  0.29132453  0.32269718  1
  F  F28  1  0.73900553  0.25000000  0.88145530  1
  F  F29  1  0.76099447  0.75000000  0.38145530  1
  F  F30  1  0.26099447  0.75000000  0.11854470  1
  F  F31  1  0.23900553  0.25000000  0.61854470  1
  F  F32  1  0.27265024  0.53421565  0.88031364  1
  F  F33  1  0.22734976  0.46578435  0.38031364  1
  F  F34  1  0.72734976  0.03421565  0.11968636  1
  F  F35  1  0.77265024  0.96578435  0.61968636  1
  F  F36  1  0.72734976  0.46578435  0.11968636  1
  F  F37  1  0.77265024  0.53421565  0.61968636  1
  F  F38  1  0.27265024  0.96578435  0.88031364  1
  F  F39  1  0.22734976  0.03421565  0.38031364  1
  F  F40  1  0.23196043  0.86783307  0.57095292  1
  F  F41  1  0.26803957  0.13216693  0.07095292  1
  F  F42  1  0.76803957  0.36783307  0.42904708  1
  F  F43  1  0.73196043  0.63216693  0.92904708  1
  F  F44  1  0.76803957  0.13216693  0.42904708  1
  F  F45  1  0.73196043  0.86783307  0.92904708  1
  F  F46  1  0.23196043  0.63216693  0.57095292  1
  F  F47  1  0.26803957  0.36783307  0.07095292  1
  F  F48  1  0.34225257  0.57801010  0.51338965  1
  F  F49  1  0.15774743  0.42198990  0.01338965  1
  F  F50  1  0.65774743  0.07801010  0.48661035  1
  F  F51  1  0.84225257  0.92198990  0.98661035  1
  F  F52  1  0.65774743  0.42198990  0.48661035  1
  F  F53  1  0.84225257  0.57801010  0.98661035  1
  F  F54  1  0.34225257  0.92198990  0.51338965  1
  F  F55  1  0.15774743  0.07801010  0.01338965  1
  F  F56  1  0.10071508  0.25000000  0.82370771  1
  F  F57  1  0.39928492  0.75000000  0.32370771  1
  F  F58  1  0.89928492  0.75000000  0.17629229  1
  F  F59  1  0.60071508  0.25000000  0.67629229  1
  Li  Li60  1  0.39555116  0.14961581  0.69066565  1
  Li  Li61  1  0.10444884  -0.14961581  1.19066565  1
  Li  Li62  1  -0.39555116  0.64961581  -0.69066565  1
  Li  Li63  1  0.89555116  0.35038419  -0.19066565  1
  Li  Li64  1  -0.39555116  -0.14961581  -0.69066565  1
  Li  Li65  1  0.89555116  0.14961581  -0.19066565  1
  Li  Li66  1  0.39555116  0.35038419  0.69066565  1
  Li  Li67  1  0.10444884  0.64961581  1.19066565  1
  Li  Li68  1  0.82262307  0.85119749  0.54343975  1
  Li  Li69  1  0.67737693  0.14880251  0.04343975  1
  Li  Li70  1  0.17737693  0.35119749  0.45656025  1
  Li  Li71  1  0.32262307  0.64880251  0.95656025  1
  Li  Li72  1  0.17737693  0.14880251  0.45656025  1
  Li  Li73  1  0.32262307  0.85119749  0.95656025  1
  Li  Li74  1  0.82262307  0.64880251  0.54343975  1
  Li  Li75  1  0.67737693  0.35119749  0.04343975  1
  Li  Li76  1  0.35934581  0.43131972  0.27905471  1
  Li  Li77  1  0.14065419  0.56868028  0.77905471  1
  Li  Li78  1  0.64065419  0.93131972  0.72094529  1
  Li  Li79  1  0.85934581  0.06868028  0.22094529  1
  Li  Li80  1  0.64065419  0.56868028  0.72094529  1
  Li  Li81  1  0.85934581  0.43131972  0.22094529  1
  Li  Li82  1  0.35934581  0.06868028  0.27905471  1
  Li  Li83  1  0.14065419  0.93131972  0.77905471  1
  Li  Li84  1  0.48244626  0.94572253  0.74796754  1
  Li  Li85  1  0.01755374  0.05427747  0.24796754  1
  Li  Li86  1  0.51755374  0.44572253  0.25203246  1
  Li  Li87  1  0.98244626  0.55427747  0.75203246  1
  Li  Li88  1  0.51755374  0.05427747  0.25203246  1
  Li  Li89  1  0.98244626  0.94572253  0.75203246  1
  Li  Li90  1  0.48244626  0.55427747  0.74796754  1
  Li  Li91  1  0.01755374  0.44572253  0.24796754  1
  Li  Li92  1  0.15964007  0.82771897  0.28819503  1
  Li  Li93  1  0.34035993  0.17228103  0.78819503  1
  Li  Li94  1  0.84035993  0.32771897  0.71180497  1
  Li  Li95  1  0.65964007  0.67228103  0.21180497  1
  Li  Li96  1  0.84035993  0.17228103  0.71180497  1
  Li  Li97  1  0.65964007  0.82771897  0.21180497  1
  Li  Li98  1  0.15964007  0.67228103  0.28819503  1
  Li  Li99  1  0.34035993  0.32771897  0.78819503  1
  Li  Li100  1  0.00000000  0.00000000  0.00000000  1
  Li  Li101  1  0.50000000  -0.00000000  0.50000000  1
  Li  Li102  1  0.00000000  0.50000000  0.00000000  1
  Li  Li103  1  0.50000000  0.50000000  0.50000000  1
  Li  Li104  1  0.86169707  0.95866328  0.86287705  1
  Li  Li105  1  0.63830293  0.04133672  0.36287705  1
  Li  Li106  1  0.13830293  0.45866328  0.13712295  1
  Li  Li107  1  0.36169707  0.54133672  0.63712295  1
  Li  Li108  1  0.13830293  0.04133672  0.13712295  1
  Li  Li109  1  0.36169707  0.95866328  0.63712295  1
  Li  Li110  1  0.86169707  0.54133672  0.86287705  1
  Li  Li111  1  0.63830293  0.45866328  0.36287705  1
  Li  Li112  1  0.94745865  0.25000000  0.53344761  1
  Li  Li113  1  0.55254135  0.75000000  0.03344761  1
  Li  Li114  1  0.05254135  0.75000000  0.46655239  1
  Li  Li115  1  0.44745865  0.25000000  0.96655239  1
  Li  Li116  1  0.00000000  0.00000000  0.50000000  1
  Li  Li117  1  0.50000000  -0.00000000  0.00000000  1
  Li  Li118  1  0.00000000  0.50000000  0.50000000  1
  Li  Li119  1  0.50000000  0.50000000  0.00000000  1
