# generated using pymatgen
data_LiF
_symmetry_space_group_name_H-M   'P 1'
_cell_length_a   10.94027020
_cell_length_b   7.54824670
_cell_length_c   7.41009481
_cell_angle_alpha   90.00000000
_cell_angle_beta   90.00000000
_cell_angle_gamma   90.00000000
_symmetry_Int_Tables_number   1
_chemical_formula_structural   LiF
_chemical_formula_sum   'Li24 F24'
_cell_volume   611.92458061
_cell_formula_units_Z   24
loop_
 _symmetry_equiv_pos_site_id
 _symmetry_equiv_pos_as_xyz
  1  'x, y, z'
loop_
 _atom_site_type_symbol
 _atom_site_label
 _atom_site_symmetry_multiplicity
 _atom_site_fract_x
 _atom_site_fract_y
 _atom_site_fract_z
 _atom_site_occupancy
  F  F0  1  0.30684606  0.61660488  0.71535071  1
  F  F1  1  0.19315394  0.38339512  0.21535071  1
  F  F2  1  0.69315394  0.11660488  0.28464929  1
  F  F3  1  0.80684606  0.88339512  0.78464929  1
  F  F4  1  0.69315394  0.38339512  0.28464929  1
  F  F5  1  0.80684606  0.61660488  0.78464929  1
  F  F6  1  0.30684606  0.88339512  0.71535071  1
  F  F7  1  0.19315394  0.11660488  0.21535071  1
  F  F8  1  0.11488555  0.94986930  0.72058624  1
  F  F9  1  0.38511445  0.05013070  0.22058624  1
  F  F10  1  0.88511445  0.44986930  0.27941376  1
  F  F11  1  0.61488555  0.55013070  0.77941376  1
  F  F12  1  0.88511445  0.05013070  0.27941376  1
  F  F13  1  0.61488555  0.94986930  0.77941376  1
  F  F14  1  0.11488555  0.55013070  0.72058624  1
  F  F15  1  0.38511445  0.44986930  0.22058624  1
  F  F16  1  0.50601034  0.92694436  0.21670345  1
  F  F17  1  0.99398966  0.07305564  0.71670345  1
  F  F18  1  0.49398966  0.42694436  0.78329655  1
  F  F19  1  0.00601034  0.57305564  0.28329655  1
  F  F20  1  0.49398966  0.07305564  0.78329655  1
  F  F21  1  0.00601034  0.92694436  0.28329655  1
  F  F22  1  0.50601034  0.57305564  0.21670345  1
  F  F23  1  0.99398966  0.42694436  0.71670345  1
  Li  Li24  1  0.06264652  0.25000000  0.66363213  1
  Li  Li25  1  0.43735348  0.75000000  0.16363213  1
  Li  Li26  1  0.93735348  0.75000000  0.33636787  1
  Li  Li27  1  0.56264652  0.25000000  0.83636787  1
  Li  Li28  1  0.76592580  0.25000000  0.21726252  1
  Li  Li29  1  0.73407420  0.75000000  0.71726252  1
  Li  Li30  1  0.23407420  0.75000000  0.78273748  1
  Li  Li31  1  0.26592580  0.25000000  0.28273748  1
  Li  Li32  1  0.55355012  0.51751912  0.10392009  1
  Li  Li33  1  -0.05355012  -0.51751912  0.60392009  1
  Li  Li34  1  -0.55355012  1.01751912  -0.10392009  1
  Li  Li35  1  1.05355012  -0.01751912  0.39607991  1
  Li  Li36  1  -0.55355012  -0.51751912  -0.10392009  1
  Li  Li37  1  1.05355012  0.51751912  0.39607991  1
  Li  Li38  1  0.55355012  -0.01751912  0.10392009  1
  Li  Li39  1  -0.05355012  1.01751912  0.60392009  1
  Li  Li40  1  0.70011597  0.46715215  0.81157080  1
  Li  Li41  1  0.79988403  0.53284785  0.31157080  1
  Li  Li42  1  0.29988403  0.96715215  0.18842920  1
  Li  Li43  1  0.20011597  0.03284785  0.68842920  1
  Li  Li44  1  0.29988403  0.53284785  0.18842920  1
  Li  Li45  1  0.20011597  0.46715215  0.68842920  1
  Li  Li46  1  0.70011597  0.03284785  0.81157080  1
  Li  Li47  1  0.79988403  0.96715215  0.31157080  1
