# generated using pymatgen
data_Li2YScTiF
_symmetry_space_group_name_H-M   'P 1'
_cell_length_a   3.28519075
_cell_length_b   3.17162762
_cell_length_c   5.05802019
_cell_angle_alpha   102.68648713
_cell_angle_beta   103.37588538
_cell_angle_gamma   107.50206642
_symmetry_Int_Tables_number   1
_chemical_formula_structural   Li2YScTiF
_chemical_formula_sum   'Li2 Y1 Sc1 Ti1 F1'
_cell_volume   46.46256149
_cell_formula_units_Z   1
loop_
 _symmetry_equiv_pos_site_id
 _symmetry_equiv_pos_as_xyz
  1  'x, y, z'
loop_
 _atom_site_type_symbol
 _atom_site_label
 _atom_site_symmetry_multiplicity
 _atom_site_fract_x
 _atom_site_fract_y
 _atom_site_fract_z
 _atom_site_occupancy
  F  F0  1  0.00000000  0.00000000  0.00000000  1
  Li  Li1  1  0.50000000  0.50000000  0.50000000  1
  Li  Li2  1  0.25000000  0.25000000  0.25000000  1
  Sc  Sc3  1  0.75000000  0.25000000  0.00000000  1
  Ti  Ti4  1  0.25000000  0.75000000  0.50000000  1
  Y  Y5  1  0.70355484  0.65266591  0.11031402  1
