# generated using pymatgen
data_LiF
_symmetry_space_group_name_H-M   'P 1'
_cell_length_a   8.08766084
_cell_length_b   5.24080394
_cell_length_c   4.80194267
_cell_angle_alpha   90.00000000
_cell_angle_beta   90.00000000
_cell_angle_gamma   90.00000000
_symmetry_Int_Tables_number   1
_chemical_formula_structural   LiF
_chemical_formula_sum   'Li8 F8'
_cell_volume   203.53439670
_cell_formula_units_Z   8
loop_
 _symmetry_equiv_pos_site_id
 _symmetry_equiv_pos_as_xyz
  1  'x, y, z'
loop_
 _atom_site_type_symbol
 _atom_site_label
 _atom_site_symmetry_multiplicity
 _atom_site_fract_x
 _atom_site_fract_y
 _atom_site_fract_z
 _atom_site_occupancy
  F  F0  1  0.17294755  0.81911461  0.73857809  1
  F  F1  1  -0.17294755  -0.81911461  0.73857809  1
  F  F2  1  0.32705245  1.31911461  -0.23857809  1
  F  F3  1  0.67294755  -0.31911461  -0.23857809  1
  F  F4  1  -0.17294755  -0.81911461  -0.73857809  1
  F  F5  1  0.17294755  0.81911461  -0.73857809  1
  F  F6  1  0.67294755  -0.31911461  1.23857809  1
  F  F7  1  0.32705245  1.31911461  1.23857809  1
  Li  Li8  1  0.36643420  0.98139246  0.27689814  1
  Li  Li9  1  0.63356580  0.01860754  0.27689814  1
  Li  Li10  1  0.13356580  0.48139246  0.22310186  1
  Li  Li11  1  0.86643420  0.51860754  0.22310186  1
  Li  Li12  1  0.63356580  0.01860754  0.72310186  1
  Li  Li13  1  0.36643420  0.98139246  0.72310186  1
  Li  Li14  1  0.86643420  0.51860754  0.77689814  1
  Li  Li15  1  0.13356580  0.48139246  0.77689814  1
