# generated using pymatgen
data_LiF
_symmetry_space_group_name_H-M   'P 1'
_cell_length_a   10.85488498
_cell_length_b   4.23140631
_cell_length_c   17.26686069
_cell_angle_alpha   90.00000000
_cell_angle_beta   90.00000000
_cell_angle_gamma   90.00000000
_symmetry_Int_Tables_number   1
_chemical_formula_structural   LiF
_chemical_formula_sum   'Li22 F22'
_cell_volume   793.09158219
_cell_formula_units_Z   22
loop_
 _symmetry_equiv_pos_site_id
 _symmetry_equiv_pos_as_xyz
  1  'x, y, z'
loop_
 _atom_site_type_symbol
 _atom_site_label
 _atom_site_symmetry_multiplicity
 _atom_site_fract_x
 _atom_site_fract_y
 _atom_site_fract_z
 _atom_site_occupancy
  F  F0  1  0.17073191  0.39073494  -0.00000000  1
  F  F1  1  0.82926809  0.60926506  -0.00000000  1
  F  F2  1  0.32926809  0.89073494  -0.00000000  1
  F  F3  1  0.67073191  0.10926506  0.00000000  1
  F  F4  1  0.07250040  0.34286901  -0.00000000  1
  F  F5  1  0.92749960  0.65713099  -0.00000000  1
  F  F6  1  0.42749960  0.84286901  -0.00000000  1
  F  F7  1  0.57250040  0.15713099  -0.00000000  1
  F  F8  1  0.38852687  0.97159711  0.30132861  1
  F  F9  1  -0.38852687  -0.97159711  0.30132861  1
  F  F10  1  0.11147313  1.47159711  -0.30132861  1
  F  F11  1  0.88852687  -0.47159711  -0.30132861  1
  F  F12  1  -0.38852687  -0.97159711  -0.30132861  1
  F  F13  1  0.38852687  0.97159711  -0.30132861  1
  F  F14  1  0.88852687  -0.47159711  0.30132861  1
  F  F15  1  0.11147313  1.47159711  0.30132861  1
  F  F16  1  0.00000000  0.50000000  -0.00000000  1
  F  F17  1  0.50000000  -0.00000000  0.00000000  1
  F  F18  1  0.00000000  0.00000000  0.50000000  1
  F  F19  1  0.50000000  0.50000000  0.50000000  1
  F  F20  1  0.00000000  0.00000000  0.00000000  1
  F  F21  1  0.50000000  0.50000000  -0.00000000  1
  Li  Li22  1  0.37396707  0.07624352  0.13069644  1
  Li  Li23  1  0.62603293  0.92375648  0.13069644  1
  Li  Li24  1  0.12603293  0.57624352  0.86930356  1
  Li  Li25  1  0.87396707  0.42375648  0.86930356  1
  Li  Li26  1  0.62603293  0.92375648  0.86930356  1
  Li  Li27  1  0.37396707  0.07624352  0.86930356  1
  Li  Li28  1  0.87396707  0.42375648  0.13069644  1
  Li  Li29  1  0.12603293  0.57624352  0.13069644  1
  Li  Li30  1  0.00000000  0.50000000  0.50000000  1
  Li  Li31  1  0.50000000  -0.00000000  0.50000000  1
  Li  Li32  1  0.00000000  0.00000000  0.85890105  1
  Li  Li33  1  0.50000000  0.50000000  0.14109895  1
  Li  Li34  1  0.00000000  0.00000000  0.14109895  1
  Li  Li35  1  0.50000000  0.50000000  0.85890105  1
  Li  Li36  1  0.00000000  0.00000000  0.71922415  1
  Li  Li37  1  0.50000000  0.50000000  0.28077585  1
  Li  Li38  1  0.00000000  0.00000000  0.28077585  1
  Li  Li39  1  0.50000000  0.50000000  0.71922415  1
  Li  Li40  1  0.63520279  0.26709441  0.50000000  1
  Li  Li41  1  0.36479721  0.73290559  0.50000000  1
  Li  Li42  1  0.86479721  0.76709441  0.50000000  1
  Li  Li43  1  0.13520279  0.23290559  0.50000000  1
