# generated using pymatgen
data_LiF
_symmetry_space_group_name_H-M   'P 1'
_cell_length_a   5.21455120
_cell_length_b   7.85008742
_cell_length_c   11.30797511
_cell_angle_alpha   90.00000000
_cell_angle_beta   90.00000000
_cell_angle_gamma   90.00000000
_symmetry_Int_Tables_number   1
_chemical_formula_structural   LiF
_chemical_formula_sum   'Li24 F24'
_cell_volume   462.88837416
_cell_formula_units_Z   24
loop_
 _symmetry_equiv_pos_site_id
 _symmetry_equiv_pos_as_xyz
  1  'x, y, z'
loop_
 _atom_site_type_symbol
 _atom_site_label
 _atom_site_symmetry_multiplicity
 _atom_site_fract_x
 _atom_site_fract_y
 _atom_site_fract_z
 _atom_site_occupancy
  F  F0  1  0.56022594  0.29282612  0.99235250  1
  F  F1  1  -0.06022594  -0.29282612  1.49235250  1
  F  F2  1  -0.56022594  0.79282612  -0.99235250  1
  F  F3  1  1.06022594  0.20717388  -0.49235250  1
  F  F4  1  -0.56022594  -0.29282612  -0.99235250  1
  F  F5  1  1.06022594  0.29282612  -0.49235250  1
  F  F6  1  0.56022594  0.20717388  0.99235250  1
  F  F7  1  -0.06022594  0.79282612  1.49235250  1
  F  F8  1  0.04687469  0.37416685  0.19593404  1
  F  F9  1  0.45312531  0.62583315  0.69593404  1
  F  F10  1  0.95312531  0.87416685  0.80406596  1
  F  F11  1  0.54687469  0.12583315  0.30406596  1
  F  F12  1  0.95312531  0.62583315  0.80406596  1
  F  F13  1  0.54687469  0.37416685  0.30406596  1
  F  F14  1  0.04687469  0.12583315  0.19593404  1
  F  F15  1  0.45312531  0.87416685  0.69593404  1
  F  F16  1  0.49077616  0.84972792  0.63444023  1
  F  F17  1  0.00922384  0.15027208  0.13444023  1
  F  F18  1  0.50922384  0.34972792  0.36555977  1
  F  F19  1  0.99077616  0.65027208  0.86555977  1
  F  F20  1  0.50922384  0.15027208  0.36555977  1
  F  F21  1  0.99077616  0.84972792  0.86555977  1
  F  F22  1  0.49077616  0.65027208  0.63444023  1
  F  F23  1  0.00922384  0.34972792  0.13444023  1
  Li  Li24  1  0.00000000  0.00000000  0.00000000  1
  Li  Li25  1  0.50000000  0.00000000  0.50000000  1
  Li  Li26  1  0.00000000  0.50000000  0.00000000  1
  Li  Li27  1  0.50000000  0.50000000  0.50000000  1
  Li  Li28  1  0.80905339  0.25000000  0.64449396  1
  Li  Li29  1  0.69094661  0.75000000  0.14449396  1
  Li  Li30  1  0.19094661  0.75000000  0.35550604  1
  Li  Li31  1  0.30905339  0.25000000  0.85550604  1
  Li  Li32  1  0.35972474  0.25000000  0.15202071  1
  Li  Li33  1  0.14027526  0.75000000  0.65202071  1
  Li  Li34  1  0.64027526  0.75000000  0.84797929  1
  Li  Li35  1  0.85972474  0.25000000  0.34797929  1
  Li  Li36  1  0.33265348  0.25000000  0.48141684  1
  Li  Li37  1  0.16734652  0.75000000  0.98141684  1
  Li  Li38  1  0.66734652  0.75000000  0.51858316  1
  Li  Li39  1  0.83265348  0.25000000  0.01858316  1
  Li  Li40  1  0.19904909  0.25000000  0.75275213  1
  Li  Li41  1  0.30095091  0.75000000  0.25275213  1
  Li  Li42  1  0.80095091  0.75000000  0.24724787  1
  Li  Li43  1  0.69904909  0.25000000  0.74724787  1
  Li  Li44  1  0.00000000  0.00000000  0.50000000  1
  Li  Li45  1  0.50000000  0.00000000  0.00000000  1
  Li  Li46  1  0.00000000  0.50000000  0.50000000  1
  Li  Li47  1  0.50000000  0.50000000  0.00000000  1
