# generated using pymatgen
data_LiF
_symmetry_space_group_name_H-M   'P 1'
_cell_length_a   9.03234459
_cell_length_b   15.91105137
_cell_length_c   11.17614672
_cell_angle_alpha   90.00000000
_cell_angle_beta   90.00000000
_cell_angle_gamma   90.00000000
_symmetry_Int_Tables_number   1
_chemical_formula_structural   LiF
_chemical_formula_sum   'Li60 F60'
_cell_volume   1606.16985420
_cell_formula_units_Z   60
loop_
 _symmetry_equiv_pos_site_id
 _symmetry_equiv_pos_as_xyz
  1  'x, y, z'
loop_
 _atom_site_type_symbol
 _atom_site_label
 _atom_site_symmetry_multiplicity
 _atom_site_fract_x
 _atom_site_fract_y
 _atom_site_fract_z
 _atom_site_occupancy
  F  F0  1  0.34328584  0.26369634  0.26520415  1
  F  F1  1  0.65671416  0.73630366  0.26520415  1
  F  F2  1  0.15671416  0.76369634  0.73479585  1
  F  F3  1  0.84328584  0.23630366  0.73479585  1
  F  F4  1  0.65671416  0.73630366  0.73479585  1
  F  F5  1  0.34328584  0.26369634  0.73479585  1
  F  F6  1  0.84328584  0.23630366  0.26520415  1
  F  F7  1  0.15671416  0.76369634  0.26520415  1
  F  F8  1  0.31333473  0.89495689  0.21234822  1
  F  F9  1  0.68666527  0.10504311  0.21234822  1
  F  F10  1  0.18666527  0.39495689  0.78765178  1
  F  F11  1  0.81333473  0.60504311  0.78765178  1
  F  F12  1  0.68666527  0.10504311  0.78765178  1
  F  F13  1  0.31333473  0.89495689  0.78765178  1
  F  F14  1  0.81333473  0.60504311  0.21234822  1
  F  F15  1  0.18666527  0.39495689  0.21234822  1
  F  F16  1  0.56339510  0.14786406  0.60117363  1
  F  F17  1  0.43660490  0.85213594  0.60117363  1
  F  F18  1  0.93660490  0.64786406  0.39882637  1
  F  F19  1  0.06339510  0.35213594  0.39882637  1
  F  F20  1  0.43660490  0.85213594  0.39882637  1
  F  F21  1  0.56339510  0.14786406  0.39882637  1
  F  F22  1  0.06339510  0.35213594  0.60117363  1
  F  F23  1  0.93660490  0.64786406  0.60117363  1
  F  F24  1  0.00000000  0.50000000  0.50000000  1
  F  F25  1  0.50000000  0.00000000  0.50000000  1
  F  F26  1  0.00000000  0.50000000  0.00000000  1
  F  F27  1  0.50000000  0.00000000  0.00000000  1
  F  F28  1  0.41035731  0.34342359  0.60587934  1
  F  F29  1  0.58964269  0.65657641  0.60587934  1
  F  F30  1  0.08964269  0.84342359  0.39412066  1
  F  F31  1  0.91035731  0.15657641  0.39412066  1
  F  F32  1  0.58964269  0.65657641  0.39412066  1
  F  F33  1  0.41035731  0.34342359  0.39412066  1
  F  F34  1  0.91035731  0.15657641  0.60587934  1
  F  F35  1  0.08964269  0.84342359  0.60587934  1
  F  F36  1  0.08812802  0.76406246  0.00000000  1
  F  F37  1  0.91187198  0.23593754  -0.00000000  1
  F  F38  1  0.41187198  0.26406246  0.00000000  1
  F  F39  1  0.58812802  0.73593754  0.00000000  1
  F  F40  1  0.30935353  0.68430785  0.50000000  1
  F  F41  1  0.69064647  0.31569215  0.50000000  1
  F  F42  1  0.19064647  0.18430785  0.50000000  1
  F  F43  1  0.80935353  0.81569215  0.50000000  1
  F  F44  1  0.23752692  0.03089861  0.44966529  1
  F  F45  1  0.76247308  0.96910139  0.44966529  1
  F  F46  1  0.26247308  0.53089861  0.55033471  1
  F  F47  1  0.73752692  0.46910139  0.55033471  1
  F  F48  1  0.76247308  0.96910139  0.55033471  1
  F  F49  1  0.23752692  0.03089861  0.55033471  1
  F  F50  1  0.73752692  0.46910139  0.44966529  1
  F  F51  1  0.26247308  0.53089861  0.44966529  1
  F  F52  1  0.69852855  0.37690240  0.58028306  1
  F  F53  1  0.30147145  0.62309760  0.58028306  1
  F  F54  1  0.80147145  0.87690240  0.41971694  1
  F  F55  1  0.19852855  0.12309760  0.41971694  1
  F  F56  1  0.30147145  0.62309760  0.41971694  1
  F  F57  1  0.69852855  0.37690240  0.41971694  1
  F  F58  1  0.19852855  0.12309760  0.58028306  1
  F  F59  1  0.80147145  0.87690240  0.58028306  1
  Li  Li60  1  0.87390207  0.13403766  0.19043827  1
  Li  Li61  1  -0.87390207  -0.13403766  0.19043827  1
  Li  Li62  1  -0.37390207  0.63403766  -0.19043827  1
  Li  Li63  1  1.37390207  0.36596234  -0.19043827  1
  Li  Li64  1  -0.87390207  -0.13403766  -0.19043827  1
  Li  Li65  1  0.87390207  0.13403766  -0.19043827  1
  Li  Li66  1  1.37390207  0.36596234  0.19043827  1
  Li  Li67  1  -0.37390207  0.63403766  0.19043827  1
  Li  Li68  1  0.07067300  0.54482562  0.87464265  1
  Li  Li69  1  0.92932700  0.45517438  0.87464265  1
  Li  Li70  1  0.42932700  0.04482562  0.12535735  1
  Li  Li71  1  0.57067300  0.95517438  0.12535735  1
  Li  Li72  1  0.92932700  0.45517438  0.12535735  1
  Li  Li73  1  0.07067300  0.54482562  0.12535735  1
  Li  Li74  1  0.57067300  0.95517438  0.87464265  1
  Li  Li75  1  0.42932700  0.04482562  0.87464265  1
  Li  Li76  1  0.44474978  0.43055360  0.28819782  1
  Li  Li77  1  0.55525022  0.56944640  0.28819782  1
  Li  Li78  1  0.05525022  0.93055360  0.71180218  1
  Li  Li79  1  0.94474978  0.06944640  0.71180218  1
  Li  Li80  1  0.55525022  0.56944640  0.71180218  1
  Li  Li81  1  0.44474978  0.43055360  0.71180218  1
  Li  Li82  1  0.94474978  0.06944640  0.28819782  1
  Li  Li83  1  0.05525022  0.93055360  0.28819782  1
  Li  Li84  1  0.94796748  0.67276713  0.05963860  1
  Li  Li85  1  0.05203252  0.32723287  0.05963860  1
  Li  Li86  1  0.55203252  0.17276713  0.94036140  1
  Li  Li87  1  0.44796748  0.82723287  0.94036140  1
  Li  Li88  1  0.05203252  0.32723287  0.94036140  1
  Li  Li89  1  0.94796748  0.67276713  0.94036140  1
  Li  Li90  1  0.44796748  0.82723287  0.05963860  1
  Li  Li91  1  0.55203252  0.17276713  0.05963860  1
  Li  Li92  1  0.24777633  0.07831866  0.67020656  1
  Li  Li93  1  0.75222367  0.92168134  0.67020656  1
  Li  Li94  1  0.25222367  0.57831866  0.32979344  1
  Li  Li95  1  0.74777633  0.42168134  0.32979344  1
  Li  Li96  1  0.75222367  0.92168134  0.32979344  1
  Li  Li97  1  0.24777633  0.07831866  0.32979344  1
  Li  Li98  1  0.74777633  0.42168134  0.67020656  1
  Li  Li99  1  0.25222367  0.57831866  0.67020656  1
  Li  Li100  1  0.00000000  0.50000000  0.21103531  1
  Li  Li101  1  0.50000000  0.00000000  0.78896469  1
  Li  Li102  1  0.00000000  0.50000000  0.78896469  1
  Li  Li103  1  0.50000000  0.00000000  0.21103531  1
  Li  Li104  1  0.94817378  0.17434782  0.32053028  1
  Li  Li105  1  0.05182622  0.82565218  0.32053028  1
  Li  Li106  1  0.55182622  0.67434782  0.67946972  1
  Li  Li107  1  0.44817378  0.32565218  0.67946972  1
  Li  Li108  1  0.05182622  0.82565218  0.67946972  1
  Li  Li109  1  0.94817378  0.17434782  0.67946972  1
  Li  Li110  1  0.44817378  0.32565218  0.32053028  1
  Li  Li111  1  0.55182622  0.67434782  0.32053028  1
  Li  Li112  1  0.03731250  0.17079138  0.50000000  1
  Li  Li113  1  0.96268750  0.82920862  0.50000000  1
  Li  Li114  1  0.46268750  0.67079138  0.50000000  1
  Li  Li115  1  0.53731250  0.32920862  0.50000000  1
  Li  Li116  1  0.38957329  0.94203486  0.50000000  1
  Li  Li117  1  0.61042671  0.05796514  0.50000000  1
  Li  Li118  1  0.11042671  0.44203486  0.50000000  1
  Li  Li119  1  0.88957329  0.55796514  0.50000000  1
