# generated using pymatgen
data_Li17Ca20F57
_symmetry_space_group_name_H-M   'P 1'
_cell_length_a   10.24280716
_cell_length_b   10.24280716
_cell_length_c   16.61546392
_cell_angle_alpha   90.00000000
_cell_angle_beta   90.00000000
_cell_angle_gamma   120.00000000
_symmetry_Int_Tables_number   1
_chemical_formula_structural   Li17Ca20F57
_chemical_formula_sum   'Li17 Ca20 F57'
_cell_volume   1509.66677180
_cell_formula_units_Z   1
loop_
 _symmetry_equiv_pos_site_id
 _symmetry_equiv_pos_as_xyz
  1  'x, y, z'
loop_
 _atom_site_type_symbol
 _atom_site_label
 _atom_site_symmetry_multiplicity
 _atom_site_fract_x
 _atom_site_fract_y
 _atom_site_fract_z
 _atom_site_occupancy
  Ca  Ca0  1  0.33333333  0.66666667  0.00000000  1
  Ca  Ca1  1  0.16637532  0.75998199  0.70479940  1
  Ca  Ca2  1  0.24001801  0.40639334  0.70479940  1
  Ca  Ca3  1  0.59360666  0.83362468  0.70479940  1
  Ca  Ca4  1  0.24001801  0.83362468  0.29520060  1
  Ca  Ca5  1  0.59360666  0.75998199  0.29520060  1
  Ca  Ca6  1  0.16637532  0.40639334  0.29520060  1
  Ca  Ca7  1  0.94626769  0.51132066  0.84056331  1
  Ca  Ca8  1  0.48867934  0.43494703  0.84056331  1
  Ca  Ca9  1  0.56505297  0.05373231  0.84056331  1
  Ca  Ca10  1  0.48867934  0.05373231  0.15943669  1
  Ca  Ca11  1  0.56505297  0.51132066  0.15943669  1
  Ca  Ca12  1  0.94626769  0.43494703  0.15943669  1
  Ca  Ca13  1  0.28512173  0.30342898  0.85357557  1
  Ca  Ca14  1  0.69657102  0.98169275  0.85357557  1
  Ca  Ca15  1  0.01830725  0.71487827  0.85357557  1
  Ca  Ca16  1  0.69657102  0.71487827  0.14642443  1
  Ca  Ca17  1  0.01830725  0.30342898  0.14642443  1
  Ca  Ca18  1  0.28512173  0.98169275  0.14642443  1
  Ca  Ca19  1  0.00000000  0.00000000  0.00000000  1
  F  F20  1  0.39173298  0.03591435  0.53772397  1
  F  F21  1  -0.03591435  0.35581862  0.53772397  1
  F  F22  1  -0.35581862  -0.39173298  0.53772397  1
  F  F23  1  -0.03591435  -0.39173298  -0.53772397  1
  F  F24  1  -0.35581862  0.03591435  -0.53772397  1
  F  F25  1  0.39173298  0.35581862  -0.53772397  1
  F  F26  1  0.53445418  0.48812278  0.75689998  1
  F  F27  1  0.51187722  0.04633140  0.75689998  1
  F  F28  1  0.95366860  0.46554582  0.75689998  1
  F  F29  1  0.51187722  0.46554582  0.24310002  1
  F  F30  1  0.95366860  0.48812278  0.24310002  1
  F  F31  1  0.53445418  0.04633140  0.24310002  1
  F  F32  1  0.52769956  0.58926795  0.71632139  1
  F  F33  1  0.41073205  0.93843161  0.71632139  1
  F  F34  1  0.06156839  0.47230044  0.71632139  1
  F  F35  1  0.41073205  0.47230044  0.28367861  1
  F  F36  1  0.06156839  0.58926795  0.28367861  1
  F  F37  1  0.52769956  0.93843161  0.28367861  1
  F  F38  1  0.09452657  0.96236569  0.44807519  1
  F  F39  1  0.03763431  0.13216088  0.44807519  1
  F  F40  1  0.86783912  0.90547343  0.44807519  1
  F  F41  1  0.03763431  0.90547343  0.55192481  1
  F  F42  1  0.86783912  0.96236569  0.55192481  1
  F  F43  1  0.09452657  0.13216088  0.55192481  1
  F  F44  1  0.23909233  0.45339255  0.62694505  1
  F  F45  1  0.54660745  0.78569977  0.62694505  1
  F  F46  1  0.21430023  0.76090767  0.62694505  1
  F  F47  1  0.54660745  0.76090767  0.37305495  1
  F  F48  1  0.21430023  0.45339255  0.37305495  1
  F  F49  1  0.23909233  0.78569977  0.37305495  1
  F  F50  1  0.66666667  0.33333333  0.21171486  1
  F  F51  1  0.66666667  0.33333333  0.78828514  1
  F  F52  1  0.00000000  0.00000000  0.50000000  1
  F  F53  1  0.33333333  0.66666667  0.53827354  1
  F  F54  1  0.33333333  0.66666667  0.46172646  1
  F  F55  1  0.00000000  0.00000000  0.81563464  1
  F  F56  1  0.00000000  0.00000000  0.18436536  1
  F  F57  1  0.33333333  0.66666667  0.09126005  1
  F  F58  1  0.33333333  0.66666667  0.90873995  1
  F  F59  1  0.33333333  0.66666667  0.85907238  1
  F  F60  1  0.33333333  0.66666667  0.14092762  1
  F  F61  1  0.68903571  0.45618055  0.84724248  1
  F  F62  1  0.54381945  0.23285516  0.84724248  1
  F  F63  1  0.76714484  0.31096429  0.84724248  1
  F  F64  1  0.54381945  0.31096429  0.15275752  1
  F  F65  1  0.76714484  0.45618055  0.15275752  1
  F  F66  1  0.68903571  0.23285516  0.15275752  1
  F  F67  1  0.66573003  0.22904353  0.64536923  1
  F  F68  1  0.77095647  0.43668649  0.64536923  1
  F  F69  1  0.56331351  0.33426997  0.64536923  1
  F  F70  1  0.77095647  0.33426997  0.35463077  1
  F  F71  1  0.56331351  0.22904353  0.35463077  1
  F  F72  1  0.66573003  0.43668649  0.35463077  1
  F  F73  1  0.45499952  0.54500048  0.50000000  1
  F  F74  1  0.45499952  0.90999905  0.50000000  1
  F  F75  1  0.09000095  0.54500048  0.50000000  1
  F  F76  1  0.66666667  0.33333333  0.50000000  1
  Li  Li77  1  0.88708559  0.49067900  0.56268961  1
  Li  Li78  1  0.50932100  0.39640659  0.56268961  1
  Li  Li79  1  0.60359341  0.11291441  0.56268961  1
  Li  Li80  1  0.50932100  0.11291441  0.43731039  1
  Li  Li81  1  0.60359341  0.49067900  0.43731039  1
  Li  Li82  1  0.88708559  0.39640659  0.43731039  1
  Li  Li83  1  0.23685874  0.76314126  0.50000000  1
  Li  Li84  1  0.23685874  0.47371747  0.50000000  1
  Li  Li85  1  0.52628253  0.76314126  0.50000000  1
  Li  Li86  1  0.75459574  0.83990476  0.56684564  1
  Li  Li87  1  0.16009524  0.91469098  0.56684564  1
  Li  Li88  1  0.08530902  0.24540426  0.56684564  1
  Li  Li89  1  0.16009524  0.24540426  0.43315436  1
  Li  Li90  1  0.08530902  0.83990476  0.43315436  1
  Li  Li91  1  0.75459574  0.91469098  0.43315436  1
  Li  Li92  1  0.66666667  0.33333333  0.67441239  1
  Li  Li93  1  0.66666667  0.33333333  0.32558761  1
