# generated using pymatgen
data_LiF
_symmetry_space_group_name_H-M   'P 1'
_cell_length_a   7.83543985
_cell_length_b   6.54877893
_cell_length_c   4.46409475
_cell_angle_alpha   90.00000000
_cell_angle_beta   90.00000000
_cell_angle_gamma   90.00000000
_symmetry_Int_Tables_number   1
_chemical_formula_structural   LiF
_chemical_formula_sum   'Li10 F10'
_cell_volume   229.06414505
_cell_formula_units_Z   10
loop_
 _symmetry_equiv_pos_site_id
 _symmetry_equiv_pos_as_xyz
  1  'x, y, z'
loop_
 _atom_site_type_symbol
 _atom_site_label
 _atom_site_symmetry_multiplicity
 _atom_site_fract_x
 _atom_site_fract_y
 _atom_site_fract_z
 _atom_site_occupancy
  F  F0  1  0.04517763  0.62498762  0.00000000  1
  F  F1  1  -0.04517763  -0.62498762  -0.00000000  1
  F  F2  1  0.45482237  1.12498762  -0.00000000  1
  F  F3  1  0.54517763  -0.12498762  0.00000000  1
  F  F4  1  0.75427965  0.90818773  0.00000000  1
  F  F5  1  0.24572035  0.09181227  0.00000000  1
  F  F6  1  0.74572035  0.40818773  0.00000000  1
  F  F7  1  0.25427965  0.59181227  0.00000000  1
  F  F8  1  0.00000000  0.00000000  0.00000000  1
  F  F9  1  0.50000000  0.50000000  -0.00000000  1
  Li  Li10  1  0.12723589  0.22026096  0.50000000  1
  Li  Li11  1  0.87276411  0.77973904  0.50000000  1
  Li  Li12  1  0.37276411  0.72026096  0.50000000  1
  Li  Li13  1  0.62723589  0.27973904  0.50000000  1
  Li  Li14  1  0.00000000  0.50000000  0.50000000  1
  Li  Li15  1  0.50000000  0.00000000  0.50000000  1
  Li  Li16  1  0.86790302  0.19987795  0.00000000  1
  Li  Li17  1  0.13209698  0.80012205  -0.00000000  1
  Li  Li18  1  0.63209698  0.69987795  0.00000000  1
  Li  Li19  1  0.36790302  0.30012205  0.00000000  1
