# generated using pymatgen
data_Li2YScTiF
_symmetry_space_group_name_H-M   'P 1'
_cell_length_a   3.14197106
_cell_length_b   3.08996446
_cell_length_c   6.10497897
_cell_angle_alpha   106.28076108
_cell_angle_beta   111.22784636
_cell_angle_gamma   116.78283595
_symmetry_Int_Tables_number   1
_chemical_formula_structural   Li2YScTiF
_chemical_formula_sum   'Li2 Y1 Sc1 Ti1 F1'
_cell_volume   41.73335545
_cell_formula_units_Z   1
loop_
 _symmetry_equiv_pos_site_id
 _symmetry_equiv_pos_as_xyz
  1  'x, y, z'
loop_
 _atom_site_type_symbol
 _atom_site_label
 _atom_site_symmetry_multiplicity
 _atom_site_fract_x
 _atom_site_fract_y
 _atom_site_fract_z
 _atom_site_occupancy
  F  F0  1  0.00000000  0.00000000  0.00000000  1
  Sc  Sc1  1  0.50000000  0.50000000  0.50000000  1
  Ti  Ti2  1  0.25000000  0.25000000  0.25000000  1
  Y  Y3  1  0.75000000  0.25000000  0.00000000  1
  Li  Li4  1  0.25000000  0.75000000  0.50000000  1
  Li  Li5  1  0.15599544  0.50261965  0.72041334  1
