# generated using pymatgen
data_Li2YP2Pb2F2
_symmetry_space_group_name_H-M   'P 1'
_cell_length_a   6.18562262
_cell_length_b   6.11605281
_cell_length_c   7.39507812
_cell_angle_alpha   93.62524586
_cell_angle_beta   96.21514395
_cell_angle_gamma   101.92666304
_symmetry_Int_Tables_number   1
_chemical_formula_structural   Li2YP2Pb2F2
_chemical_formula_sum   'Li2 Y1 P2 Pb2 F2'
_cell_volume   271.06343641
_cell_formula_units_Z   1
loop_
 _symmetry_equiv_pos_site_id
 _symmetry_equiv_pos_as_xyz
  1  'x, y, z'
loop_
 _atom_site_type_symbol
 _atom_site_label
 _atom_site_symmetry_multiplicity
 _atom_site_fract_x
 _atom_site_fract_y
 _atom_site_fract_z
 _atom_site_occupancy
  Pb  Pb0  1  0.00000000  0.00000000  0.00000000  1
  Pb  Pb1  1  0.50000000  0.50000000  0.50000000  1
  F  F2  1  0.50000000  0.50000000  0.00000000  1
  F  F3  1  0.50000000  0.00000000  0.50000000  1
  P  P4  1  0.00000000  0.50000000  0.50000000  1
  P  P5  1  0.17512054  0.51011868  0.92690587  1
  Li  Li6  1  0.66676960  0.95701850  0.70327469  1
  Li  Li7  1  0.32684626  0.20148601  0.21381839  1
  Y  Y8  1  0.36159978  0.63568101  0.01425195  1
