# generated using pymatgen
data_Li2YP2Se
_symmetry_space_group_name_H-M   'P 1'
_cell_length_a   5.88845253
_cell_length_b   6.24149935
_cell_length_c   7.54594774
_cell_angle_alpha   93.11525367
_cell_angle_beta   96.78437484
_cell_angle_gamma   102.51273585
_symmetry_Int_Tables_number   1
_chemical_formula_structural   Li2YP2Se
_chemical_formula_sum   'Li4 Y2 P4 Se2'
_cell_volume   267.93574422
_cell_formula_units_Z   2
loop_
 _symmetry_equiv_pos_site_id
 _symmetry_equiv_pos_as_xyz
  1  'x, y, z'
loop_
 _atom_site_type_symbol
 _atom_site_label
 _atom_site_symmetry_multiplicity
 _atom_site_fract_x
 _atom_site_fract_y
 _atom_site_fract_z
 _atom_site_occupancy
  Se  Se0  1  0.00000000  0.00000000  0.00000000  1
  Se  Se1  1  0.50000000  0.50000000  0.50000000  1
  P  P2  1  0.25000000  0.25000000  0.25000000  1
  P  P3  1  0.75000000  0.25000000  0.00000000  1
  P  P4  1  0.25000000  0.75000000  0.50000000  1
  P  P5  1  0.50725539  0.49936958  0.88828701  1
  Li  Li6  1  0.36210836  0.37853134  0.30523596  1
  Li  Li7  1  0.33693952  0.28710764  0.76466993  1
  Li  Li8  1  0.74113183  0.30557077  0.19450330  1
  Li  Li9  1  0.44848175  0.07142742  0.77641671  1
  Y  Y10  1  0.18232233  0.38127614  0.75578166  1
  Y  Y11  1  0.89238368  0.32864707  0.33937689  1
