# generated using pymatgen
data_Li2Ca3F8
_symmetry_space_group_name_H-M   'P 1'
_cell_length_a   19.67470762
_cell_length_b   19.67470762
_cell_length_c   5.83799013
_cell_angle_alpha   90.00000000
_cell_angle_beta   90.00000000
_cell_angle_gamma   120.00000000
_symmetry_Int_Tables_number   1
_chemical_formula_structural   Li2Ca3F8
_chemical_formula_sum   'Li16 Ca24 F64'
_cell_volume   1957.08893804
_cell_formula_units_Z   8
loop_
 _symmetry_equiv_pos_site_id
 _symmetry_equiv_pos_as_xyz
  1  'x, y, z'
loop_
 _atom_site_type_symbol
 _atom_site_label
 _atom_site_symmetry_multiplicity
 _atom_site_fract_x
 _atom_site_fract_y
 _atom_site_fract_z
 _atom_site_occupancy
  Ca  Ca0  1  0.43481739  0.00000000  0.50000000  1
  Ca  Ca1  1  0.00000000  0.43481739  0.50000000  1
  Ca  Ca2  1  0.56518261  0.56518261  0.50000000  1
  Ca  Ca3  1  0.13970482  0.64889168  0.00000000  1
  Ca  Ca4  1  0.35110832  0.49081313  0.00000000  1
  Ca  Ca5  1  0.50918687  0.86029518  0.00000000  1
  Ca  Ca6  1  0.64889168  0.13970482  0.00000000  1
  Ca  Ca7  1  0.49081313  0.35110832  0.00000000  1
  Ca  Ca8  1  0.86029518  0.50918687  0.00000000  1
  Ca  Ca9  1  0.12166903  0.84060308  0.50000000  1
  Ca  Ca10  1  0.15939692  0.28106595  0.50000000  1
  Ca  Ca11  1  0.71893405  0.87833097  0.50000000  1
  Ca  Ca12  1  0.84060308  0.12166903  0.50000000  1
  Ca  Ca13  1  0.28106595  0.15939692  0.50000000  1
  Ca  Ca14  1  0.87833097  0.71893405  0.50000000  1
  Ca  Ca15  1  0.19346650  -0.00000000  0.00000000  1
  Ca  Ca16  1  0.00000000  0.19346650  0.00000000  1
  Ca  Ca17  1  0.80653350  0.80653350  0.00000000  1
  Ca  Ca18  1  0.91598241  0.00000000  0.28212702  1
  Ca  Ca19  1  0.00000000  0.91598241  0.28212702  1
  Ca  Ca20  1  0.08401759  0.08401759  0.28212702  1
  Ca  Ca21  1  0.91598241  0.00000000  0.71787298  1
  Ca  Ca22  1  0.00000000  0.91598241  0.71787298  1
  Ca  Ca23  1  0.08401759  0.08401759  0.71787298  1
  F  F24  1  0.84837856  0.60883952  0.77097278  1
  F  F25  1  -0.60883952  0.23953905  0.77097278  1
  F  F26  1  -0.23953905  -0.84837856  0.77097278  1
  F  F27  1  0.84837856  0.60883952  -0.77097278  1
  F  F28  1  -0.60883952  0.23953905  -0.77097278  1
  F  F29  1  -0.23953905  -0.84837856  -0.77097278  1
  F  F30  1  0.60883952  0.84837856  -0.77097278  1
  F  F31  1  0.23953905  -0.60883952  -0.77097278  1
  F  F32  1  -0.84837856  -0.23953905  -0.77097278  1
  F  F33  1  0.60883952  0.84837856  0.77097278  1
  F  F34  1  0.23953905  -0.60883952  0.77097278  1
  F  F35  1  -0.84837856  -0.23953905  0.77097278  1
  F  F36  1  0.33333333  0.66666667  0.82056045  1
  F  F37  1  0.33333333  0.66666667  0.17943955  1
  F  F38  1  0.66666667  0.33333333  0.17943955  1
  F  F39  1  0.66666667  0.33333333  0.82056045  1
  F  F40  1  0.43494113  0.23516022  0.61377133  1
  F  F41  1  0.76483978  0.19978091  0.61377133  1
  F  F42  1  0.80021909  0.56505887  0.61377133  1
  F  F43  1  0.43494113  0.23516022  0.38622867  1
  F  F44  1  0.76483978  0.19978091  0.38622867  1
  F  F45  1  0.80021909  0.56505887  0.38622867  1
  F  F46  1  0.23516022  0.43494113  0.38622867  1
  F  F47  1  0.19978091  0.76483978  0.38622867  1
  F  F48  1  0.56505887  0.80021909  0.38622867  1
  F  F49  1  0.23516022  0.43494113  0.61377133  1
  F  F50  1  0.19978091  0.76483978  0.61377133  1
  F  F51  1  0.56505887  0.80021909  0.61377133  1
  F  F52  1  0.00000000  0.00000000  0.00000000  1
  F  F53  1  0.69380443  0.59091469  0.58320641  1
  F  F54  1  0.40908531  0.10288974  0.58320641  1
  F  F55  1  0.89711026  0.30619557  0.58320641  1
  F  F56  1  0.69380443  0.59091469  0.41679359  1
  F  F57  1  0.40908531  0.10288974  0.41679359  1
  F  F58  1  0.89711026  0.30619557  0.41679359  1
  F  F59  1  0.59091469  0.69380443  0.41679359  1
  F  F60  1  0.10288974  0.40908531  0.41679359  1
  F  F61  1  0.30619557  0.89711026  0.41679359  1
  F  F62  1  0.59091469  0.69380443  0.58320641  1
  F  F63  1  0.10288974  0.40908531  0.58320641  1
  F  F64  1  0.30619557  0.89711026  0.58320641  1
  F  F65  1  0.72339862  0.65757633  0.83915414  1
  F  F66  1  0.34242367  0.06582228  0.83915414  1
  F  F67  1  0.93417772  0.27660138  0.83915414  1
  F  F68  1  0.72339862  0.65757633  0.16084586  1
  F  F69  1  0.34242367  0.06582228  0.16084586  1
  F  F70  1  0.93417772  0.27660138  0.16084586  1
  F  F71  1  0.65757633  0.72339862  0.16084586  1
  F  F72  1  0.06582228  0.34242367  0.16084586  1
  F  F73  1  0.27660138  0.93417772  0.16084586  1
  F  F74  1  0.65757633  0.72339862  0.83915414  1
  F  F75  1  0.06582228  0.34242367  0.83915414  1
  F  F76  1  0.27660138  0.93417772  0.83915414  1
  F  F77  1  0.00000000  0.00000000  0.72731150  1
  F  F78  1  0.00000000  0.00000000  0.27268850  1
  F  F79  1  0.68386939  0.29534288  0.00000000  1
  F  F80  1  0.70465712  0.38852651  0.00000000  1
  F  F81  1  0.61147349  0.31613061  0.00000000  1
  F  F82  1  0.29534288  0.68386939  0.00000000  1
  F  F83  1  0.38852651  0.70465712  0.00000000  1
  F  F84  1  0.31613061  0.61147349  0.00000000  1
  F  F85  1  0.58374044  0.00000000  0.00000000  1
  F  F86  1  0.00000000  0.58374044  0.00000000  1
  F  F87  1  0.41625956  0.41625956  0.00000000  1
  Li  Li88  1  0.82945536  0.94811970  0.00000000  1
  Li  Li89  1  0.05188030  0.88133565  -0.00000000  1
  Li  Li90  1  0.11866435  0.17054464  0.00000000  1
  Li  Li91  1  0.94811970  0.82945536  0.00000000  1
  Li  Li92  1  0.88133565  0.05188030  0.00000000  1
  Li  Li93  1  0.17054464  0.11866435  0.00000000  1
  Li  Li94  1  0.10600828  0.00000000  0.00000000  1
  Li  Li95  1  0.00000000  0.10600828  0.00000000  1
  Li  Li96  1  0.89399172  0.89399172  -0.00000000  1
  Li  Li97  1  0.78948557  0.68418106  0.00000000  1
  Li  Li98  1  0.31581894  0.10530450  0.00000000  1
  Li  Li99  1  0.89469550  0.21051443  0.00000000  1
  Li  Li100  1  0.68418106  0.78948557  0.00000000  1
  Li  Li101  1  0.10530450  0.31581894  0.00000000  1
  Li  Li102  1  0.21051443  0.89469550  0.00000000  1
  Li  Li103  1  0.00000000  0.00000000  0.50000000  1
