# generated using pymatgen
data_Li2Si4Te3F12
_symmetry_space_group_name_H-M   'P 1'
_cell_length_a   12.84594926
_cell_length_b   11.40830828
_cell_length_c   5.62122611
_cell_angle_alpha   90.00000000
_cell_angle_beta   90.00000000
_cell_angle_gamma   90.00000000
_symmetry_Int_Tables_number   1
_chemical_formula_structural   Li2Si4Te3F12
_chemical_formula_sum   'Li8 Si16 Te12 F48'
_cell_volume   823.79377460
_cell_formula_units_Z   4
loop_
 _symmetry_equiv_pos_site_id
 _symmetry_equiv_pos_as_xyz
  1  'x, y, z'
loop_
 _atom_site_type_symbol
 _atom_site_label
 _atom_site_symmetry_multiplicity
 _atom_site_fract_x
 _atom_site_fract_y
 _atom_site_fract_z
 _atom_site_occupancy
  F  F0  1  0.00000000  0.00000000  0.31412432  1
  F  F1  1  0.50000000  0.50000000  0.68587568  1
  F  F2  1  0.00000000  0.00000000  0.68587568  1
  F  F3  1  0.50000000  0.50000000  0.31412432  1
  F  F4  1  0.55524127  0.83645914  0.57289273  1
  F  F5  1  0.44475873  0.16354086  0.57289273  1
  F  F6  1  0.94475873  0.33645914  0.42710727  1
  F  F7  1  0.05524127  0.66354086  0.42710727  1
  F  F8  1  0.44475873  0.16354086  0.42710727  1
  F  F9  1  0.55524127  0.83645914  0.42710727  1
  F  F10  1  0.05524127  0.66354086  0.57289273  1
  F  F11  1  0.94475873  0.33645914  0.57289273  1
  F  F12  1  0.02314191  0.87348600  0.70977826  1
  F  F13  1  0.97685809  0.12651400  0.70977826  1
  F  F14  1  0.47685809  0.37348600  0.29022174  1
  F  F15  1  0.52314191  0.62651400  0.29022174  1
  F  F16  1  0.97685809  0.12651400  0.29022174  1
  F  F17  1  0.02314191  0.87348600  0.29022174  1
  F  F18  1  0.52314191  0.62651400  0.70977826  1
  F  F19  1  0.47685809  0.37348600  0.70977826  1
  F  F20  1  0.00000000  0.50000000  0.50000000  1
  F  F21  1  0.50000000  -0.00000000  0.50000000  1
  F  F22  1  0.00000000  0.00000000  0.00000000  1
  F  F23  1  0.50000000  0.50000000  0.00000000  1
  F  F24  1  0.60340913  0.63618500  0.00000000  1
  F  F25  1  0.39659087  0.36381500  0.00000000  1
  F  F26  1  0.89659087  0.13618500  -0.00000000  1
  F  F27  1  0.10340913  0.86381500  0.00000000  1
  F  F28  1  0.29572324  0.78226178  0.38948630  1
  F  F29  1  0.70427676  0.21773822  0.38948630  1
  F  F30  1  0.20427676  0.28226178  0.61051370  1
  F  F31  1  0.79572324  0.71773822  0.61051370  1
  F  F32  1  0.70427676  0.21773822  0.61051370  1
  F  F33  1  0.29572324  0.78226178  0.61051370  1
  F  F34  1  0.79572324  0.71773822  0.38948630  1
  F  F35  1  0.20427676  0.28226178  0.38948630  1
  F  F36  1  0.88432368  0.81639203  0.55152014  1
  F  F37  1  0.11567632  0.18360797  0.55152014  1
  F  F38  1  0.61567632  0.31639203  0.44847986  1
  F  F39  1  0.38432368  0.68360797  0.44847986  1
  F  F40  1  0.11567632  0.18360797  0.44847986  1
  F  F41  1  0.88432368  0.81639203  0.44847986  1
  F  F42  1  0.38432368  0.68360797  0.55152014  1
  F  F43  1  0.61567632  0.31639203  0.55152014  1
  F  F44  1  0.87213319  0.91567271  -0.00000000  1
  F  F45  1  0.12786681  0.08432729  0.00000000  1
  F  F46  1  0.62786681  0.41567271  -0.00000000  1
  F  F47  1  0.37213319  0.58432729  0.00000000  1
  Li  Li48  1  0.36110633  0.17961223  0.50000000  1
  Li  Li49  1  0.63889367  0.82038777  0.50000000  1
  Li  Li50  1  0.13889367  0.67961223  0.50000000  1
  Li  Li51  1  0.86110633  0.32038777  0.50000000  1
  Li  Li52  1  0.97531433  0.16467471  0.50000000  1
  Li  Li53  1  0.02468567  0.83532529  0.50000000  1
  Li  Li54  1  0.52468567  0.66467471  0.50000000  1
  Li  Li55  1  0.47531433  0.33532529  0.50000000  1
  Si  Si56  1  0.15650574  0.00888916  0.36845685  1
  Si  Si57  1  -0.15650574  -0.00888916  0.36845685  1
  Si  Si58  1  0.34349426  0.50888916  -0.36845685  1
  Si  Si59  1  0.65650574  0.49111084  -0.36845685  1
  Si  Si60  1  -0.15650574  -0.00888916  -0.36845685  1
  Si  Si61  1  0.15650574  0.00888916  -0.36845685  1
  Si  Si62  1  0.65650574  0.49111084  0.36845685  1
  Si  Si63  1  0.34349426  0.50888916  0.36845685  1
  Si  Si64  1  0.75710944  0.57482352  0.28632228  1
  Si  Si65  1  0.24289056  0.42517648  0.28632228  1
  Si  Si66  1  0.74289056  0.07482352  0.71367772  1
  Si  Si67  1  0.25710944  0.92517648  0.71367772  1
  Si  Si68  1  0.24289056  0.42517648  0.71367772  1
  Si  Si69  1  0.75710944  0.57482352  0.71367772  1
  Si  Si70  1  0.25710944  0.92517648  0.28632228  1
  Si  Si71  1  0.74289056  0.07482352  0.28632228  1
  Te  Te72  1  0.00000000  0.50000000  0.00000000  1
  Te  Te73  1  0.50000000  -0.00000000  0.00000000  1
  Te  Te74  1  0.62025174  0.79858957  0.18693753  1
  Te  Te75  1  0.37974826  0.20141043  0.18693753  1
  Te  Te76  1  0.87974826  0.29858957  0.81306247  1
  Te  Te77  1  0.12025174  0.70141043  0.81306247  1
  Te  Te78  1  0.37974826  0.20141043  0.81306247  1
  Te  Te79  1  0.62025174  0.79858957  0.81306247  1
  Te  Te80  1  0.12025174  0.70141043  0.18693753  1
  Te  Te81  1  0.87974826  0.29858957  0.18693753  1
  Te  Te82  1  0.00000000  0.00000000  0.50000000  1
  Te  Te83  1  0.50000000  0.50000000  0.50000000  1
