# generated using pymatgen
data_Li3Cu3Sb2P3Se
_symmetry_space_group_name_H-M   'P 1'
_cell_length_a   5.46305823
_cell_length_b   5.71891762
_cell_length_c   6.76412656
_cell_angle_alpha   93.36766885
_cell_angle_beta   95.24561207
_cell_angle_gamma   100.25131275
_symmetry_Int_Tables_number   1
_chemical_formula_structural   Li3Cu3Sb2P3Se
_chemical_formula_sum   'Li3 Cu3 Sb2 P3 Se1'
_cell_volume   206.47797763
_cell_formula_units_Z   1
loop_
 _symmetry_equiv_pos_site_id
 _symmetry_equiv_pos_as_xyz
  1  'x, y, z'
loop_
 _atom_site_type_symbol
 _atom_site_label
 _atom_site_symmetry_multiplicity
 _atom_site_fract_x
 _atom_site_fract_y
 _atom_site_fract_z
 _atom_site_occupancy
  Se  Se0  1  0.00000000  0.00000000  0.00000000  1
  Cu  Cu1  1  0.50000000  0.50000000  0.50000000  1
  Cu  Cu2  1  0.25000000  0.25000000  0.25000000  1
  Cu  Cu3  1  0.75000000  0.25000000  0.00000000  1
  P  P4  1  0.25000000  0.75000000  0.50000000  1
  P  P5  1  0.39552773  0.35205995  0.22439636  1
  P  P6  1  0.89591358  0.80858140  0.11739698  1
  Li  Li7  1  0.22136343  0.57272026  0.13959555  1
  Li  Li8  1  0.36409346  0.62391452  0.44312216  1
  Li  Li9  1  0.28244383  0.02387428  0.29133422  1
  Sb  Sb10  1  0.17100910  0.61909577  0.77681643  1
  Sb  Sb11  1  0.76589922  0.08063275  0.78889395  1
