# generated using pymatgen
data_Li2Y2As2P4Se
_symmetry_space_group_name_H-M   'P 1'
_cell_length_a   5.27513132
_cell_length_b   5.18491966
_cell_length_c   7.47153994
_cell_angle_alpha   94.41379860
_cell_angle_beta   99.61233574
_cell_angle_gamma   107.72847474
_symmetry_Int_Tables_number   1
_chemical_formula_structural   Li2Y2As2P4Se
_chemical_formula_sum   'Li2 Y2 As2 P4 Se1'
_cell_volume   190.13196448
_cell_formula_units_Z   1
loop_
 _symmetry_equiv_pos_site_id
 _symmetry_equiv_pos_as_xyz
  1  'x, y, z'
loop_
 _atom_site_type_symbol
 _atom_site_label
 _atom_site_symmetry_multiplicity
 _atom_site_fract_x
 _atom_site_fract_y
 _atom_site_fract_z
 _atom_site_occupancy
  Se  Se0  1  0.00000000  0.00000000  0.00000000  1
  Y  Y1  1  0.50000000  0.50000000  0.50000000  1
  Y  Y2  1  0.25000000  0.25000000  0.25000000  1
  P  P3  1  0.75000000  0.25000000  0.00000000  1
  P  P4  1  0.25000000  0.75000000  0.50000000  1
  P  P5  1  0.42856925  0.53586930  0.17141710  1
  P  P6  1  0.70739469  0.81850204  0.02341426  1
  As  As7  1  0.14187589  0.20847728  0.45129841  1
  As  As8  1  0.43747492  0.84967491  0.25801086  1
  Li  Li9  1  0.64515677  0.13262231  0.39210040  1
  Li  Li10  1  0.60595344  0.72196825  0.74202561  1
