# generated using pymatgen
data_Li2Y2Cu3P2Se
_symmetry_space_group_name_H-M   'P 1'
_cell_length_a   4.98695433
_cell_length_b   5.34641353
_cell_length_c   6.59776178
_cell_angle_alpha   94.64511442
_cell_angle_beta   97.85081255
_cell_angle_gamma   103.20476031
_symmetry_Int_Tables_number   1
_chemical_formula_structural   Li2Y2Cu3P2Se
_chemical_formula_sum   'Li2 Y2 Cu3 P2 Se1'
_cell_volume   168.50359025
_cell_formula_units_Z   1
loop_
 _symmetry_equiv_pos_site_id
 _symmetry_equiv_pos_as_xyz
  1  'x, y, z'
loop_
 _atom_site_type_symbol
 _atom_site_label
 _atom_site_symmetry_multiplicity
 _atom_site_fract_x
 _atom_site_fract_y
 _atom_site_fract_z
 _atom_site_occupancy
  Se  Se0  1  0.00000000  0.00000000  0.00000000  1
  Cu  Cu1  1  0.50000000  0.50000000  0.50000000  1
  Cu  Cu2  1  0.25000000  0.25000000  0.25000000  1
  Cu  Cu3  1  0.75000000  0.25000000  0.00000000  1
  Y  Y4  1  0.25000000  0.75000000  0.50000000  1
  Y  Y5  1  0.19526930  0.74394616  0.14562338  1
  P  P6  1  0.82329000  0.58698864  0.88596722  1
  P  P7  1  0.15980864  0.73975052  0.95176878  1
  Li  Li8  1  0.24128005  0.22414305  0.50180433  1
  Li  Li9  1  0.64807989  0.30764364  0.21744793  1
