# generated using pymatgen
data_Li2YTiOF
_symmetry_space_group_name_H-M   'P 1'
_cell_length_a   3.26452892
_cell_length_b   3.35930508
_cell_length_c   6.16067274
_cell_angle_alpha   108.95004984
_cell_angle_beta   105.22628117
_cell_angle_gamma   111.47998538
_symmetry_Int_Tables_number   1
_chemical_formula_structural   Li2YTiOF
_chemical_formula_sum   'Li2 Y1 Ti1 O1 F1'
_cell_volume   53.58341471
_cell_formula_units_Z   1
loop_
 _symmetry_equiv_pos_site_id
 _symmetry_equiv_pos_as_xyz
  1  'x, y, z'
loop_
 _atom_site_type_symbol
 _atom_site_label
 _atom_site_symmetry_multiplicity
 _atom_site_fract_x
 _atom_site_fract_y
 _atom_site_fract_z
 _atom_site_occupancy
  F  F0  1  0.00000000  0.00000000  0.00000000  1
  O  O1  1  0.50000000  0.50000000  0.50000000  1
  Ti  Ti2  1  0.25000000  0.25000000  0.25000000  1
  Y  Y3  1  0.75000000  0.25000000  0.00000000  1
  Li  Li4  1  0.25000000  0.75000000  0.50000000  1
  Li  Li5  1  0.36990357  0.91302711  0.60492292  1
