# generated using pymatgen
data_LiF
_symmetry_space_group_name_H-M   'P 1'
_cell_length_a   4.46831114
_cell_length_b   7.75943019
_cell_length_c   14.22103638
_cell_angle_alpha   90.00000000
_cell_angle_beta   90.00000000
_cell_angle_gamma   90.00000000
_symmetry_Int_Tables_number   1
_chemical_formula_structural   LiF
_chemical_formula_sum   'Li24 F24'
_cell_volume   493.06535053
_cell_formula_units_Z   24
loop_
 _symmetry_equiv_pos_site_id
 _symmetry_equiv_pos_as_xyz
  1  'x, y, z'
loop_
 _atom_site_type_symbol
 _atom_site_label
 _atom_site_symmetry_multiplicity
 _atom_site_fract_x
 _atom_site_fract_y
 _atom_site_fract_z
 _atom_site_occupancy
  F  F0  1  0.89070533  0.25000000  0.43876658  1
  F  F1  1  0.60929467  0.75000000  0.93876658  1
  F  F2  1  0.10929467  0.75000000  0.56123342  1
  F  F3  1  0.39070533  0.25000000  0.06123342  1
  F  F4  1  0.30503296  0.45675444  0.31590971  1
  F  F5  1  0.19496704  0.54324556  0.81590971  1
  F  F6  1  0.69496704  0.95675444  0.68409029  1
  F  F7  1  0.80503296  0.04324556  0.18409029  1
  F  F8  1  0.69496704  0.54324556  0.68409029  1
  F  F9  1  0.80503296  0.45675444  0.18409029  1
  F  F10  1  0.30503296  0.04324556  0.31590971  1
  F  F11  1  0.19496704  0.95675444  0.81590971  1
  F  F12  1  0.00000000  0.00000000  0.00000000  1
  F  F13  1  0.50000000  0.00000000  0.50000000  1
  F  F14  1  0.00000000  0.50000000  -0.00000000  1
  F  F15  1  0.50000000  0.50000000  0.50000000  1
  F  F16  1  0.98590460  0.25000000  0.31410091  1
  F  F17  1  0.51409540  0.75000000  0.81410091  1
  F  F18  1  0.01409540  0.75000000  0.68589909  1
  F  F19  1  0.48590460  0.25000000  0.18589909  1
  F  F20  1  0.00000000  0.00000000  0.50000000  1
  F  F21  1  0.50000000  0.00000000  0.00000000  1
  F  F22  1  0.00000000  0.50000000  0.50000000  1
  F  F23  1  0.50000000  0.50000000  -0.00000000  1
  Li  Li24  1  0.62663449  0.91382276  0.77855342  1
  Li  Li25  1  -0.12663449  -0.91382276  1.27855342  1
  Li  Li26  1  -0.62663449  1.41382276  -0.77855342  1
  Li  Li27  1  1.12663449  -0.41382276  -0.27855342  1
  Li  Li28  1  -0.62663449  -0.91382276  -0.77855342  1
  Li  Li29  1  1.12663449  0.91382276  -0.27855342  1
  Li  Li30  1  0.62663449  -0.41382276  0.77855342  1
  Li  Li31  1  -0.12663449  1.41382276  1.27855342  1
  Li  Li32  1  0.12348983  0.25000000  0.41049689  1
  Li  Li33  1  0.37651017  0.75000000  0.91049689  1
  Li  Li34  1  0.87651017  0.75000000  0.58950311  1
  Li  Li35  1  0.62348983  0.25000000  0.08950311  1
  Li  Li36  1  0.17013817  0.25000000  0.85932294  1
  Li  Li37  1  0.32986183  0.75000000  0.35932294  1
  Li  Li38  1  0.82986183  0.75000000  0.14067706  1
  Li  Li39  1  0.67013817  0.25000000  0.64067706  1
  Li  Li40  1  0.35095424  0.13458271  0.95321191  1
  Li  Li41  1  0.14904576  0.86541729  0.45321191  1
  Li  Li42  1  0.64904576  0.63458271  0.04678809  1
  Li  Li43  1  0.85095424  0.36541729  0.54678809  1
  Li  Li44  1  0.64904576  0.86541729  0.04678809  1
  Li  Li45  1  0.85095424  0.13458271  0.54678809  1
  Li  Li46  1  0.35095424  0.36541729  0.95321191  1
  Li  Li47  1  0.14904576  0.63458271  0.45321191  1
