# generated using pymatgen
data_LiF
_symmetry_space_group_name_H-M   'P 1'
_cell_length_a   7.63788847
_cell_length_b   9.11911451
_cell_length_c   8.64451176
_cell_angle_alpha   90.00000000
_cell_angle_beta   90.00000000
_cell_angle_gamma   90.00000000
_symmetry_Int_Tables_number   1
_chemical_formula_structural   LiF
_chemical_formula_sum   'Li28 F28'
_cell_volume   602.09698333
_cell_formula_units_Z   28
loop_
 _symmetry_equiv_pos_site_id
 _symmetry_equiv_pos_as_xyz
  1  'x, y, z'
loop_
 _atom_site_type_symbol
 _atom_site_label
 _atom_site_symmetry_multiplicity
 _atom_site_fract_x
 _atom_site_fract_y
 _atom_site_fract_z
 _atom_site_occupancy
  F  F0  1  0.03957739  0.02846276  0.95968342  1
  F  F1  1  0.46042261  0.97153724  0.45968342  1
  F  F2  1  0.96042261  0.52846276  0.04031658  1
  F  F3  1  0.53957739  0.47153724  0.54031658  1
  F  F4  1  0.96042261  0.97153724  0.04031658  1
  F  F5  1  0.53957739  0.02846276  0.54031658  1
  F  F6  1  0.03957739  0.47153724  0.95968342  1
  F  F7  1  0.46042261  0.52846276  0.45968342  1
  F  F8  1  0.34874157  0.69928306  0.91590251  1
  F  F9  1  0.15125843  0.30071694  0.41590251  1
  F  F10  1  0.65125843  0.19928306  0.08409749  1
  F  F11  1  0.84874157  0.80071694  0.58409749  1
  F  F12  1  0.65125843  0.30071694  0.08409749  1
  F  F13  1  0.84874157  0.69928306  0.58409749  1
  F  F14  1  0.34874157  0.80071694  0.91590251  1
  F  F15  1  0.15125843  0.19928306  0.41590251  1
  F  F16  1  0.59234376  0.83751617  0.23527504  1
  F  F17  1  0.90765624  0.16248383  0.73527504  1
  F  F18  1  0.40765624  0.33751617  0.76472496  1
  F  F19  1  0.09234376  0.66248383  0.26472496  1
  F  F20  1  0.40765624  0.16248383  0.76472496  1
  F  F21  1  0.09234376  0.83751617  0.26472496  1
  F  F22  1  0.59234376  0.66248383  0.23527504  1
  F  F23  1  0.90765624  0.33751617  0.73527504  1
  F  F24  1  0.89545506  0.25000000  0.68087551  1
  F  F25  1  0.60454494  0.75000000  0.18087551  1
  F  F26  1  0.10454494  0.75000000  0.31912449  1
  F  F27  1  0.39545506  0.25000000  0.81912449  1
  Li  Li28  1  0.00000000  0.00000000  0.50000000  1
  Li  Li29  1  0.50000000  0.00000000  0.00000000  1
  Li  Li30  1  0.00000000  0.50000000  0.50000000  1
  Li  Li31  1  0.50000000  0.50000000  0.00000000  1
  Li  Li32  1  0.04263261  0.07780052  0.36725974  1
  Li  Li33  1  0.45736739  -0.07780052  0.86725974  1
  Li  Li34  1  -0.04263261  0.57780052  -0.36725974  1
  Li  Li35  1  0.54263261  0.42219948  0.13274026  1
  Li  Li36  1  -0.04263261  -0.07780052  -0.36725974  1
  Li  Li37  1  0.54263261  0.07780052  0.13274026  1
  Li  Li38  1  0.04263261  0.42219948  0.36725974  1
  Li  Li39  1  0.45736739  0.57780052  0.86725974  1
  Li  Li40  1  0.18918571  0.25000000  0.31441882  1
  Li  Li41  1  0.31081429  0.75000000  0.81441882  1
  Li  Li42  1  0.81081429  0.75000000  0.68558118  1
  Li  Li43  1  0.68918571  0.25000000  0.18558118  1
  Li  Li44  1  0.18048274  0.95911663  0.25792342  1
  Li  Li45  1  0.31951726  0.04088337  0.75792342  1
  Li  Li46  1  0.81951726  0.45911663  0.74207658  1
  Li  Li47  1  0.68048274  0.54088337  0.24207658  1
  Li  Li48  1  0.81951726  0.04088337  0.74207658  1
  Li  Li49  1  0.68048274  0.95911663  0.24207658  1
  Li  Li50  1  0.18048274  0.54088337  0.25792342  1
  Li  Li51  1  0.31951726  0.45911663  0.75792342  1
  Li  Li52  1  0.99882088  0.25000000  0.23861543  1
  Li  Li53  1  0.50117912  0.75000000  0.73861543  1
  Li  Li54  1  0.00117912  0.75000000  0.76138457  1
  Li  Li55  1  0.49882088  0.25000000  0.26138457  1
