# generated using pymatgen
data_Li2Ca3F8
_symmetry_space_group_name_H-M   'P 1'
_cell_length_a   9.63704975
_cell_length_b   17.69997687
_cell_length_c   9.56092735
_cell_angle_alpha   90.00000000
_cell_angle_beta   90.00000000
_cell_angle_gamma   90.00000000
_symmetry_Int_Tables_number   1
_chemical_formula_structural   Li2Ca3F8
_chemical_formula_sum   'Li16 Ca24 F64'
_cell_volume   1630.86051643
_cell_formula_units_Z   8
loop_
 _symmetry_equiv_pos_site_id
 _symmetry_equiv_pos_as_xyz
  1  'x, y, z'
loop_
 _atom_site_type_symbol
 _atom_site_label
 _atom_site_symmetry_multiplicity
 _atom_site_fract_x
 _atom_site_fract_y
 _atom_site_fract_z
 _atom_site_occupancy
  Ca  Ca0  1  0.77215671  0.78028220  0.50000000  1
  Ca  Ca1  1  0.22784329  0.21971780  0.50000000  1
  Ca  Ca2  1  0.72784329  0.28028220  0.50000000  1
  Ca  Ca3  1  0.27215671  0.71971780  0.50000000  1
  Ca  Ca4  1  0.17336056  0.10579066  0.64035817  1
  Ca  Ca5  1  0.82663944  0.89420934  0.64035817  1
  Ca  Ca6  1  0.32663944  0.60579066  0.35964183  1
  Ca  Ca7  1  0.67336056  0.39420934  0.35964183  1
  Ca  Ca8  1  0.82663944  0.89420934  0.35964183  1
  Ca  Ca9  1  0.17336056  0.10579066  0.35964183  1
  Ca  Ca10  1  0.67336056  0.39420934  0.64035817  1
  Ca  Ca11  1  0.32663944  0.60579066  0.64035817  1
  Ca  Ca12  1  0.18429757  0.59903854  -0.00000000  1
  Ca  Ca13  1  0.81570243  0.40096146  0.00000000  1
  Ca  Ca14  1  0.31570243  0.09903854  0.00000000  1
  Ca  Ca15  1  0.68429757  0.90096146  0.00000000  1
  Ca  Ca16  1  0.16352535  0.85406361  0.63721143  1
  Ca  Ca17  1  0.83647465  0.14593639  0.63721143  1
  Ca  Ca18  1  0.33647465  0.35406361  0.36278857  1
  Ca  Ca19  1  0.66352535  0.64593639  0.36278857  1
  Ca  Ca20  1  0.83647465  0.14593639  0.36278857  1
  Ca  Ca21  1  0.16352535  0.85406361  0.36278857  1
  Ca  Ca22  1  0.66352535  0.64593639  0.63721143  1
  Ca  Ca23  1  0.33647465  0.35406361  0.63721143  1
  F  F24  1  0.00000000  0.50000000  0.12272459  1
  F  F25  1  0.50000000  0.00000000  0.87727541  1
  F  F26  1  0.00000000  0.50000000  0.87727541  1
  F  F27  1  0.50000000  0.00000000  0.12272459  1
  F  F28  1  0.79798244  0.19930165  0.00000000  1
  F  F29  1  0.20201756  0.80069835  -0.00000000  1
  F  F30  1  0.70201756  0.69930165  0.00000000  1
  F  F31  1  0.29798244  0.30069835  0.00000000  1
  F  F32  1  0.01251223  0.24710341  0.46452060  1
  F  F33  1  -0.01251223  -0.24710341  0.46452060  1
  F  F34  1  0.48748777  0.74710341  -0.46452060  1
  F  F35  1  0.51251223  0.25289659  -0.46452060  1
  F  F36  1  -0.01251223  -0.24710341  -0.46452060  1
  F  F37  1  0.01251223  0.24710341  -0.46452060  1
  F  F38  1  0.51251223  0.25289659  0.46452060  1
  F  F39  1  0.48748777  0.74710341  0.46452060  1
  F  F40  1  0.20675802  0.80105981  0.14863703  1
  F  F41  1  0.79324198  0.19894019  0.14863703  1
  F  F42  1  0.29324198  0.30105981  0.85136297  1
  F  F43  1  0.70675802  0.69894019  0.85136297  1
  F  F44  1  0.79324198  0.19894019  0.85136297  1
  F  F45  1  0.20675802  0.80105981  0.85136297  1
  F  F46  1  0.70675802  0.69894019  0.14863703  1
  F  F47  1  0.29324198  0.30105981  0.14863703  1
  F  F48  1  0.71735589  0.80847703  0.09363907  1
  F  F49  1  0.28264411  0.19152297  0.09363907  1
  F  F50  1  0.78264411  0.30847703  0.90636093  1
  F  F51  1  0.21735589  0.69152297  0.90636093  1
  F  F52  1  0.28264411  0.19152297  0.90636093  1
  F  F53  1  0.71735589  0.80847703  0.90636093  1
  F  F54  1  0.21735589  0.69152297  0.09363907  1
  F  F55  1  0.78264411  0.30847703  0.09363907  1
  F  F56  1  0.00000000  0.50000000  0.50000000  1
  F  F57  1  0.50000000  0.00000000  0.50000000  1
  F  F58  1  0.00000000  0.50000000  0.37229167  1
  F  F59  1  0.50000000  0.00000000  0.62770833  1
  F  F60  1  0.00000000  0.50000000  0.62770833  1
  F  F61  1  0.50000000  0.00000000  0.37229167  1
  F  F62  1  0.50348128  0.21848745  0.00000000  1
  F  F63  1  0.49651872  0.78151255  0.00000000  1
  F  F64  1  0.99651872  0.71848745  0.00000000  1
  F  F65  1  0.00348128  0.28151255  0.00000000  1
  F  F66  1  0.85307050  0.05298556  0.27662629  1
  F  F67  1  0.14692950  0.94701444  0.27662629  1
  F  F68  1  0.64692950  0.55298556  0.72337371  1
  F  F69  1  0.35307050  0.44701444  0.72337371  1
  F  F70  1  0.14692950  0.94701444  0.72337371  1
  F  F71  1  0.85307050  0.05298556  0.72337371  1
  F  F72  1  0.35307050  0.44701444  0.27662629  1
  F  F73  1  0.64692950  0.55298556  0.27662629  1
  F  F74  1  0.00000000  0.50000000  0.00000000  1
  F  F75  1  0.50000000  0.00000000  0.00000000  1
  F  F76  1  0.48372782  0.19687152  0.39341917  1
  F  F77  1  0.51627218  0.80312848  0.39341917  1
  F  F78  1  0.01627218  0.69687152  0.60658083  1
  F  F79  1  0.98372782  0.30312848  0.60658083  1
  F  F80  1  0.51627218  0.80312848  0.60658083  1
  F  F81  1  0.48372782  0.19687152  0.60658083  1
  F  F82  1  0.98372782  0.30312848  0.39341917  1
  F  F83  1  0.01627218  0.69687152  0.39341917  1
  F  F84  1  0.62662101  0.13480769  0.00000000  1
  F  F85  1  0.37337899  0.86519231  0.00000000  1
  F  F86  1  0.87337899  0.63480769  0.00000000  1
  F  F87  1  0.12662101  0.36519231  0.00000000  1
  Li  Li88  1  0.29945081  0.90925517  0.50000000  1
  Li  Li89  1  0.70054919  0.09074483  0.50000000  1
  Li  Li90  1  0.20054919  0.40925517  0.50000000  1
  Li  Li91  1  0.79945081  0.59074483  0.50000000  1
  Li  Li92  1  0.00000000  0.00000000  0.00000000  1
  Li  Li93  1  0.50000000  0.50000000  0.00000000  1
  Li  Li94  1  0.06552516  0.76312267  0.70788371  1
  Li  Li95  1  0.93447484  0.23687733  0.70788371  1
  Li  Li96  1  0.43447484  0.26312267  0.29211629  1
  Li  Li97  1  0.56552516  0.73687733  0.29211629  1
  Li  Li98  1  0.93447484  0.23687733  0.29211629  1
  Li  Li99  1  0.06552516  0.76312267  0.29211629  1
  Li  Li100  1  0.56552516  0.73687733  0.70788371  1
  Li  Li101  1  0.43447484  0.26312267  0.70788371  1
  Li  Li102  1  0.00000000  0.00000000  0.50000000  1
  Li  Li103  1  0.50000000  0.50000000  0.50000000  1
