# generated using pymatgen
data_LiYP2Se
_symmetry_space_group_name_H-M   'P 1'
_cell_length_a   4.15738875
_cell_length_b   4.44665564
_cell_length_c   6.85617227
_cell_angle_alpha   96.22316008
_cell_angle_beta   103.55274889
_cell_angle_gamma   114.99596070
_symmetry_Int_Tables_number   1
_chemical_formula_structural   LiYP2Se
_chemical_formula_sum   'Li2 Y2 P4 Se2'
_cell_volume   108.53771378
_cell_formula_units_Z   2
loop_
 _symmetry_equiv_pos_site_id
 _symmetry_equiv_pos_as_xyz
  1  'x, y, z'
loop_
 _atom_site_type_symbol
 _atom_site_label
 _atom_site_symmetry_multiplicity
 _atom_site_fract_x
 _atom_site_fract_y
 _atom_site_fract_z
 _atom_site_occupancy
  Y  Y0  1  0.00000000  0.00000000  0.00000000  1
  Y  Y1  1  0.50000000  0.50000000  0.50000000  1
  P  P2  1  0.25000000  0.25000000  0.25000000  1
  P  P3  1  0.75000000  0.25000000  0.00000000  1
  P  P4  1  0.25000000  0.75000000  0.50000000  1
  P  P5  1  0.67150154  0.51087257  0.51378991  1
  Se  Se6  1  0.24236710  0.98661790  0.93240615  1
  Se  Se7  1  0.25153777  0.12807672  0.32411829  1
  Li  Li8  1  0.46606014  0.26170187  0.23443279  1
  Li  Li9  1  0.05249472  0.59296245  0.84806993  1
