# generated using pymatgen
data_Li2YAs2P3Pb2
_symmetry_space_group_name_H-M   'P 1'
_cell_length_a   6.04209075
_cell_length_b   6.12130523
_cell_length_c   7.31738442
_cell_angle_alpha   93.07738974
_cell_angle_beta   96.51842749
_cell_angle_gamma   99.93991090
_symmetry_Int_Tables_number   1
_chemical_formula_structural   Li2YAs2P3Pb2
_chemical_formula_sum   'Li2 Y1 As2 P3 Pb2'
_cell_volume   264.10766166
_cell_formula_units_Z   1
loop_
 _symmetry_equiv_pos_site_id
 _symmetry_equiv_pos_as_xyz
  1  'x, y, z'
loop_
 _atom_site_type_symbol
 _atom_site_label
 _atom_site_symmetry_multiplicity
 _atom_site_fract_x
 _atom_site_fract_y
 _atom_site_fract_z
 _atom_site_occupancy
  Pb  Pb0  1  0.00000000  0.00000000  0.00000000  1
  Pb  Pb1  1  0.50000000  0.50000000  0.50000000  1
  Y  Y2  1  0.25000000  0.25000000  0.25000000  1
  P  P3  1  0.75000000  0.25000000  0.00000000  1
  P  P4  1  0.25000000  0.75000000  0.50000000  1
  P  P5  1  0.82286019  0.46248320  0.95333689  1
  As  As6  1  0.34274436  0.83270597  0.31981421  1
  As  As7  1  0.80220312  0.44411069  0.62070571  1
  Li  Li8  1  0.81311258  0.75499243  0.19418620  1
  Li  Li9  1  0.01195666  0.39002643  0.17125133  1
