# generated using pymatgen
data_LiF
_symmetry_space_group_name_H-M   'P 1'
_cell_length_a   10.87962831
_cell_length_b   9.45936231
_cell_length_c   8.87586297
_cell_angle_alpha   90.00000000
_cell_angle_beta   90.00000000
_cell_angle_gamma   90.00000000
_symmetry_Int_Tables_number   1
_chemical_formula_structural   LiF
_chemical_formula_sum   'Li24 F24'
_cell_volume   913.45363229
_cell_formula_units_Z   24
loop_
 _symmetry_equiv_pos_site_id
 _symmetry_equiv_pos_as_xyz
  1  'x, y, z'
loop_
 _atom_site_type_symbol
 _atom_site_label
 _atom_site_symmetry_multiplicity
 _atom_site_fract_x
 _atom_site_fract_y
 _atom_site_fract_z
 _atom_site_occupancy
  F  F0  1  0.05144484  0.78681175  0.85588280  1
  F  F1  1  0.44855516  0.21318825  0.35588280  1
  F  F2  1  0.94855516  0.28681175  0.14411720  1
  F  F3  1  0.55144484  0.71318825  0.64411720  1
  F  F4  1  0.94855516  0.21318825  0.14411720  1
  F  F5  1  0.55144484  0.78681175  0.64411720  1
  F  F6  1  0.05144484  0.71318825  0.85588280  1
  F  F7  1  0.44855516  0.28681175  0.35588280  1
  F  F8  1  0.36436312  0.83283793  0.78774067  1
  F  F9  1  0.13563688  0.16716207  0.28774067  1
  F  F10  1  0.63563688  0.33283793  0.21225933  1
  F  F11  1  0.86436312  0.66716207  0.71225933  1
  F  F12  1  0.63563688  0.16716207  0.21225933  1
  F  F13  1  0.86436312  0.83283793  0.71225933  1
  F  F14  1  0.36436312  0.66716207  0.78774067  1
  F  F15  1  0.13563688  0.33283793  0.28774067  1
  F  F16  1  0.54720831  0.85120156  0.19148196  1
  F  F17  1  0.95279169  0.14879844  0.69148196  1
  F  F18  1  0.45279169  0.35120156  0.80851804  1
  F  F19  1  0.04720831  0.64879844  0.30851804  1
  F  F20  1  0.45279169  0.14879844  0.80851804  1
  F  F21  1  0.04720831  0.85120156  0.30851804  1
  F  F22  1  0.54720831  0.64879844  0.19148196  1
  F  F23  1  0.95279169  0.35120156  0.69148196  1
  Li  Li24  1  0.22058960  0.95259508  0.96927894  1
  Li  Li25  1  0.27941040  -0.95259508  1.46927894  1
  Li  Li26  1  -0.22058960  1.45259508  -0.96927894  1
  Li  Li27  1  0.72058960  -0.45259508  -0.46927894  1
  Li  Li28  1  -0.22058960  -0.95259508  -0.96927894  1
  Li  Li29  1  0.72058960  0.95259508  -0.46927894  1
  Li  Li30  1  0.22058960  -0.45259508  0.96927894  1
  Li  Li31  1  0.27941040  1.45259508  1.46927894  1
  Li  Li32  1  0.60342012  0.66118585  0.96554947  1
  Li  Li33  1  0.89657988  0.33881415  0.46554947  1
  Li  Li34  1  0.39657988  0.16118585  0.03445053  1
  Li  Li35  1  0.10342012  0.83881415  0.53445053  1
  Li  Li36  1  0.39657988  0.33881415  0.03445053  1
  Li  Li37  1  0.10342012  0.66118585  0.53445053  1
  Li  Li38  1  0.60342012  0.83881415  0.96554947  1
  Li  Li39  1  0.89657988  0.16118585  0.46554947  1
  Li  Li40  1  0.00000000  0.00000000  0.00000000  1
  Li  Li41  1  0.50000000  0.00000000  0.50000000  1
  Li  Li42  1  0.00000000  0.50000000  0.00000000  1
  Li  Li43  1  0.50000000  0.50000000  0.50000000  1
  Li  Li44  1  0.73205756  0.25000000  0.21496957  1
  Li  Li45  1  0.76794244  0.75000000  0.71496957  1
  Li  Li46  1  0.26794244  0.75000000  0.78503043  1
  Li  Li47  1  0.23205756  0.25000000  0.28503043  1
