# generated using pymatgen
data_Li3Y2(P2Se)2
_symmetry_space_group_name_H-M   'P 1'
_cell_length_a   5.35388758
_cell_length_b   5.68723870
_cell_length_c   7.33294012
_cell_angle_alpha   94.07499753
_cell_angle_beta   98.87449744
_cell_angle_gamma   106.36764549
_symmetry_Int_Tables_number   1
_chemical_formula_structural   Li3Y2(P2Se)2
_chemical_formula_sum   'Li3 Y2 P4 Se2'
_cell_volume   210.11550117
_cell_formula_units_Z   1
loop_
 _symmetry_equiv_pos_site_id
 _symmetry_equiv_pos_as_xyz
  1  'x, y, z'
loop_
 _atom_site_type_symbol
 _atom_site_label
 _atom_site_symmetry_multiplicity
 _atom_site_fract_x
 _atom_site_fract_y
 _atom_site_fract_z
 _atom_site_occupancy
  Se  Se0  1  0.00000000  0.00000000  0.00000000  1
  Se  Se1  1  0.33300000  0.66700000  0.25000000  1
  Y  Y2  1  0.66700000  0.33300000  0.50000000  1
  Y  Y3  1  0.00000000  0.00000000  0.75000000  1
  P  P4  1  0.06914795  0.13625325  0.02711487  1
  P  P5  1  0.10638536  0.30893655  0.27319088  1
  P  P6  1  0.38241862  0.68718711  0.44065272  1
  P  P7  1  0.51209782  0.78087774  0.15594539  1
  Li  Li8  1  0.37488013  0.28839270  0.48468692  1
  Li  Li9  1  0.77768019  0.32982611  0.79261948  1
  Li  Li10  1  0.48700002  0.84859593  0.84953140  1
