# generated using pymatgen
data_LiF
_symmetry_space_group_name_H-M   'P 1'
_cell_length_a   17.67697534
_cell_length_b   17.67697534
_cell_length_c   2.43930067
_cell_angle_alpha   90.00000000
_cell_angle_beta   90.00000000
_cell_angle_gamma   120.00000000
_symmetry_Int_Tables_number   1
_chemical_formula_structural   LiF
_chemical_formula_sum   'Li26 F26'
_cell_volume   660.10326055
_cell_formula_units_Z   26
loop_
 _symmetry_equiv_pos_site_id
 _symmetry_equiv_pos_as_xyz
  1  'x, y, z'
loop_
 _atom_site_type_symbol
 _atom_site_label
 _atom_site_symmetry_multiplicity
 _atom_site_fract_x
 _atom_site_fract_y
 _atom_site_fract_z
 _atom_site_occupancy
  F  F0  1  0.10857031  0.92906322  0.87785834  1
  F  F1  1  0.07093678  0.17950709  0.87785834  1
  F  F2  1  0.82049291  0.89142969  0.87785834  1
  F  F3  1  0.07093678  0.89142969  0.12214166  1
  F  F4  1  0.82049291  0.92906322  0.12214166  1
  F  F5  1  0.10857031  0.17950709  0.12214166  1
  F  F6  1  0.72618366  0.27381634  0.00000000  1
  F  F7  1  0.72618366  0.45236732  0.00000000  1
  F  F8  1  0.54763268  0.27381634  0.00000000  1
  F  F9  1  0.33693501  0.60146390  0.73868383  1
  F  F10  1  0.39853610  0.73547111  0.73868383  1
  F  F11  1  0.26452889  0.66306499  0.73868383  1
  F  F12  1  0.39853610  0.66306499  0.26131617  1
  F  F13  1  0.26452889  0.60146390  0.26131617  1
  F  F14  1  0.33693501  0.73547111  0.26131617  1
  F  F15  1  0.25501406  0.36139203  0.47085143  1
  F  F16  1  0.63860797  0.89362203  0.47085143  1
  F  F17  1  0.10637797  0.74498594  0.47085143  1
  F  F18  1  0.63860797  0.74498594  0.52914857  1
  F  F19  1  0.10637797  0.36139203  0.52914857  1
  F  F20  1  0.25501406  0.89362203  0.52914857  1
  F  F21  1  0.29014375  0.70985625  0.50000000  1
  F  F22  1  0.29014375  0.58028751  0.50000000  1
  F  F23  1  0.41971249  0.70985625  0.50000000  1
  F  F24  1  0.66666667  0.33333333  0.50000000  1
  F  F25  1  0.00000000  0.00000000  0.50000000  1
  Li  Li26  1  0.66666667  0.33333333  0.00000000  1
  Li  Li27  1  0.74805216  0.74933496  0.38039039  1
  Li  Li28  1  -0.74933496  -0.00128280  0.38039039  1
  Li  Li29  1  0.00128280  -0.74805216  0.38039039  1
  Li  Li30  1  -0.74933496  -0.74805216  -0.38039039  1
  Li  Li31  1  0.00128280  0.74933496  -0.38039039  1
  Li  Li32  1  0.74805216  -0.00128280  -0.38039039  1
  Li  Li33  1  0.05800052  0.94199948  0.00000000  1
  Li  Li34  1  0.05800052  0.11600103  0.00000000  1
  Li  Li35  1  0.88399897  0.94199948  0.00000000  1
  Li  Li36  1  0.57877516  0.35069404  0.64598842  1
  Li  Li37  1  0.64930596  0.22808112  0.64598842  1
  Li  Li38  1  0.77191888  0.42122484  0.64598842  1
  Li  Li39  1  0.64930596  0.42122484  0.35401158  1
  Li  Li40  1  0.77191888  0.35069404  0.35401158  1
  Li  Li41  1  0.57877516  0.22808112  0.35401158  1
  Li  Li42  1  0.14860142  0.85139858  0.00000000  1
  Li  Li43  1  0.14860142  0.29720285  0.00000000  1
  Li  Li44  1  0.70279715  0.85139858  0.00000000  1
  Li  Li45  1  0.86345220  0.36615250  0.83808258  1
  Li  Li46  1  0.63384750  0.49729970  0.83808258  1
  Li  Li47  1  0.50270030  0.13654780  0.83808258  1
  Li  Li48  1  0.63384750  0.13654780  0.16191742  1
  Li  Li49  1  0.50270030  0.36615250  0.16191742  1
  Li  Li50  1  0.86345220  0.49729970  0.16191742  1
  Li  Li51  1  0.00000000  0.00000000  0.00000000  1
