# generated using pymatgen
data_LiF
_symmetry_space_group_name_H-M   'P 1'
_cell_length_a   17.44984734
_cell_length_b   17.44984734
_cell_length_c   7.49816053
_cell_angle_alpha   90.00000000
_cell_angle_beta   90.00000000
_cell_angle_gamma   120.00000000
_symmetry_Int_Tables_number   1
_chemical_formula_structural   LiF
_chemical_formula_sum   'Li69 F69'
_cell_volume   1977.28207685
_cell_formula_units_Z   69
loop_
 _symmetry_equiv_pos_site_id
 _symmetry_equiv_pos_as_xyz
  1  'x, y, z'
loop_
 _atom_site_type_symbol
 _atom_site_label
 _atom_site_symmetry_multiplicity
 _atom_site_fract_x
 _atom_site_fract_y
 _atom_site_fract_z
 _atom_site_occupancy
  F  F0  1  0.38690439  0.15479895  0.23508979  1
  F  F1  1  0.84520105  0.23210545  0.23508979  1
  F  F2  1  0.76789455  0.61309561  0.23508979  1
  F  F3  1  0.84520105  0.61309561  0.76491021  1
  F  F4  1  0.76789455  0.15479895  0.76491021  1
  F  F5  1  0.38690439  0.23210545  0.76491021  1
  F  F6  1  0.33333333  0.66666667  -0.00000000  1
  F  F7  1  0.60548552  0.93950851  0.54697285  1
  F  F8  1  0.06049149  0.66597700  0.54697285  1
  F  F9  1  0.33402300  0.39451448  0.54697285  1
  F  F10  1  0.06049149  0.39451448  0.45302715  1
  F  F11  1  0.33402300  0.93950851  0.45302715  1
  F  F12  1  0.60548552  0.66597700  0.45302715  1
  F  F13  1  0.92845373  0.26166726  0.81533838  1
  F  F14  1  0.73833274  0.66678647  0.81533838  1
  F  F15  1  0.33321353  0.07154627  0.81533838  1
  F  F16  1  0.73833274  0.07154627  0.18466162  1
  F  F17  1  0.33321353  0.26166726  0.18466162  1
  F  F18  1  0.92845373  0.66678647  0.18466162  1
  F  F19  1  0.73886325  0.35467741  0.65291445  1
  F  F20  1  0.64532259  0.38418584  0.65291445  1
  F  F21  1  0.61581416  0.26113675  0.65291445  1
  F  F22  1  0.64532259  0.26113675  0.34708555  1
  F  F23  1  0.61581416  0.35467741  0.34708555  1
  F  F24  1  0.73886325  0.38418584  0.34708555  1
  F  F25  1  0.61893461  0.38106539  0.50000000  1
  F  F26  1  0.61893461  0.23786922  0.50000000  1
  F  F27  1  0.76213078  0.38106539  0.50000000  1
  F  F28  1  0.72029660  0.90634013  0.27964329  1
  F  F29  1  0.09365987  0.81395648  0.27964329  1
  F  F30  1  0.18604352  0.27970340  0.27964329  1
  F  F31  1  0.09365987  0.27970340  0.72035671  1
  F  F32  1  0.18604352  0.90634013  0.72035671  1
  F  F33  1  0.72029660  0.81395648  0.72035671  1
  F  F34  1  0.98788342  0.58486726  0.22398385  1
  F  F35  1  0.41513274  0.40301617  0.22398385  1
  F  F36  1  0.59698383  0.01211658  0.22398385  1
  F  F37  1  0.41513274  0.01211658  0.77601615  1
  F  F38  1  0.59698383  0.58486726  0.77601615  1
  F  F39  1  0.98788342  0.40301617  0.77601615  1
  F  F40  1  0.04711891  0.95288109  0.50000000  1
  F  F41  1  0.04711891  0.09423783  0.50000000  1
  F  F42  1  0.90576217  0.95288109  0.50000000  1
  F  F43  1  0.54528631  0.97219306  0.99920843  1
  F  F44  1  0.02780694  0.57309325  0.99920843  1
  F  F45  1  0.42690675  0.45471369  0.99920843  1
  F  F46  1  0.02780694  0.45471369  0.00079157  1
  F  F47  1  0.42690675  0.97219306  0.00079157  1
  F  F48  1  0.54528631  0.57309325  0.00079157  1
  F  F49  1  0.22666677  0.48956989  0.64262470  1
  F  F50  1  0.51043011  0.73709689  0.64262470  1
  F  F51  1  0.26290311  0.77333323  0.64262470  1
  F  F52  1  0.51043011  0.77333323  0.35737530  1
  F  F53  1  0.26290311  0.48956989  0.35737530  1
  F  F54  1  0.22666677  0.73709689  0.35737530  1
  F  F55  1  0.33333333  0.66666667  0.50000000  1
  F  F56  1  0.73061516  0.26938484  0.50000000  1
  F  F57  1  0.73061516  0.46123033  0.50000000  1
  F  F58  1  0.53876967  0.26938484  0.50000000  1
  F  F59  1  0.47802149  0.42272656  0.70799605  1
  F  F60  1  0.57727344  0.05529492  0.70799605  1
  F  F61  1  0.94470508  0.52197851  0.70799605  1
  F  F62  1  0.57727344  0.52197851  0.29200395  1
  F  F63  1  0.94470508  0.42272656  0.29200395  1
  F  F64  1  0.47802149  0.05529492  0.29200395  1
  F  F65  1  0.90569402  0.09430598  -0.00000000  1
  F  F66  1  0.90569402  0.81138803  -0.00000000  1
  F  F67  1  0.18861197  0.09430598  0.00000000  1
  F  F68  1  0.00000000  0.00000000  0.00000000  1
  Li  Li69  1  0.66666667  0.33333333  0.50000000  1
  Li  Li70  1  0.00000000  0.00000000  0.50000000  1
  Li  Li71  1  0.65705720  0.53623590  0.85433348  1
  Li  Li72  1  -0.53623590  0.12082131  0.85433348  1
  Li  Li73  1  -0.12082131  -0.65705720  0.85433348  1
  Li  Li74  1  -0.53623590  -0.65705720  -0.85433348  1
  Li  Li75  1  -0.12082131  0.53623590  -0.85433348  1
  Li  Li76  1  0.65705720  0.12082131  -0.85433348  1
  Li  Li77  1  0.82844017  0.39794338  0.33600658  1
  Li  Li78  1  0.60205662  0.43049680  0.33600658  1
  Li  Li79  1  0.56950320  0.17155983  0.33600658  1
  Li  Li80  1  0.60205662  0.17155983  0.66399342  1
  Li  Li81  1  0.56950320  0.39794338  0.66399342  1
  Li  Li82  1  0.82844017  0.43049680  0.66399342  1
  Li  Li83  1  0.30564451  0.39199033  0.98562402  1
  Li  Li84  1  0.60800967  0.91365418  0.98562402  1
  Li  Li85  1  0.08634582  0.69435549  0.98562402  1
  Li  Li86  1  0.60800967  0.69435549  0.01437598  1
  Li  Li87  1  0.08634582  0.39199033  0.01437598  1
  Li  Li88  1  0.30564451  0.91365418  0.01437598  1
  Li  Li89  1  0.12914169  0.60948387  0.92508961  1
  Li  Li90  1  0.39051613  0.51965782  0.92508961  1
  Li  Li91  1  0.48034218  0.87085831  0.92508961  1
  Li  Li92  1  0.39051613  0.87085831  0.07491039  1
  Li  Li93  1  0.48034218  0.60948387  0.07491039  1
  Li  Li94  1  0.12914169  0.51965782  0.07491039  1
  Li  Li95  1  0.23584369  0.95174779  0.37243011  1
  Li  Li96  1  0.04825221  0.28409590  0.37243011  1
  Li  Li97  1  0.71590410  0.76415631  0.37243011  1
  Li  Li98  1  0.04825221  0.76415631  0.62756989  1
  Li  Li99  1  0.71590410  0.95174779  0.62756989  1
  Li  Li100  1  0.23584369  0.28409590  0.62756989  1
  Li  Li101  1  0.16523522  0.87209975  0.60230225  1
  Li  Li102  1  0.12790025  0.29313548  0.60230225  1
  Li  Li103  1  0.70686452  0.83476478  0.60230225  1
  Li  Li104  1  0.12790025  0.83476478  0.39769775  1
  Li  Li105  1  0.70686452  0.87209975  0.39769775  1
  Li  Li106  1  0.16523522  0.29313548  0.39769775  1
  Li  Li107  1  0.81367427  0.06980872  0.21203614  1
  Li  Li108  1  0.93019128  0.74386555  0.21203614  1
  Li  Li109  1  0.25613445  0.18632573  0.21203614  1
  Li  Li110  1  0.93019128  0.18632573  0.78796386  1
  Li  Li111  1  0.25613445  0.06980872  0.78796386  1
  Li  Li112  1  0.81367427  0.74386555  0.78796386  1
  Li  Li113  1  0.78332414  0.01562197  0.97312833  1
  Li  Li114  1  0.98437803  0.76770217  0.97312833  1
  Li  Li115  1  0.23229783  0.21667586  0.97312833  1
  Li  Li116  1  0.98437803  0.21667586  0.02687167  1
  Li  Li117  1  0.23229783  0.01562197  0.02687167  1
  Li  Li118  1  0.78332414  0.76770217  0.02687167  1
  Li  Li119  1  0.50577602  0.66189791  0.74310314  1
  Li  Li120  1  0.33810209  0.84387811  0.74310314  1
  Li  Li121  1  0.15612189  0.49422398  0.74310314  1
  Li  Li122  1  0.33810209  0.49422398  0.25689686  1
  Li  Li123  1  0.15612189  0.66189791  0.25689686  1
  Li  Li124  1  0.50577602  0.84387811  0.25689686  1
  Li  Li125  1  0.82084347  0.43490145  0.87990023  1
  Li  Li126  1  0.56509855  0.38594202  0.87990023  1
  Li  Li127  1  0.61405798  0.17915653  0.87990023  1
  Li  Li128  1  0.56509855  0.17915653  0.12009977  1
  Li  Li129  1  0.61405798  0.43490145  0.12009977  1
  Li  Li130  1  0.82084347  0.38594202  0.12009977  1
  Li  Li131  1  0.41183095  0.46726318  0.48888652  1
  Li  Li132  1  0.53273682  0.94456777  0.48888652  1
  Li  Li133  1  0.05543223  0.58816905  0.48888652  1
  Li  Li134  1  0.53273682  0.58816905  0.51111348  1
  Li  Li135  1  0.05543223  0.46726318  0.51111348  1
  Li  Li136  1  0.41183095  0.94456777  0.51111348  1
  Li  Li137  1  0.66666667  0.33333333  -0.00000000  1
