# generated using pymatgen
data_LiSb2(Te2P)2
_symmetry_space_group_name_H-M   'P 1'
_cell_length_a   5.01495339
_cell_length_b   4.97597266
_cell_length_c   7.22342808
_cell_angle_alpha   94.89639072
_cell_angle_beta   100.66332105
_cell_angle_gamma   109.66685549
_symmetry_Int_Tables_number   1
_chemical_formula_structural   LiSb2(Te2P)2
_chemical_formula_sum   'Li1 Sb2 Te4 P2'
_cell_volume   164.67280788
_cell_formula_units_Z   1
loop_
 _symmetry_equiv_pos_site_id
 _symmetry_equiv_pos_as_xyz
  1  'x, y, z'
loop_
 _atom_site_type_symbol
 _atom_site_label
 _atom_site_symmetry_multiplicity
 _atom_site_fract_x
 _atom_site_fract_y
 _atom_site_fract_z
 _atom_site_occupancy
  P  P0  1  0.12500000  0.12500000  0.12500000  1
  P  P1  1  0.50000000  0.50000000  0.50000000  1
  Te  Te2  1  0.25000000  0.25000000  0.25000000  1
  Te  Te3  1  0.75000000  0.75000000  0.75000000  1
  Te  Te4  1  0.77540301  0.87034434  0.27120375  1
  Te  Te5  1  0.69174611  0.05733917  0.93760685  1
  Li  Li6  1  0.44083299  0.23900357  0.43504225  1
  Sb  Sb7  1  0.79684690  0.44147301  0.87989107  1
  Sb  Sb8  1  0.65832400  0.30881142  0.04992808  1
