# generated using pymatgen
data_LiF
_symmetry_space_group_name_H-M   'P 1'
_cell_length_a   19.55708237
_cell_length_b   19.55708237
_cell_length_c   4.06127810
_cell_angle_alpha   90.00000000
_cell_angle_beta   90.00000000
_cell_angle_gamma   90.00000000
_symmetry_Int_Tables_number   1
_chemical_formula_structural   LiF
_chemical_formula_sum   'Li64 F64'
_cell_volume   1553.35549897
_cell_formula_units_Z   64
loop_
 _symmetry_equiv_pos_site_id
 _symmetry_equiv_pos_as_xyz
  1  'x, y, z'
loop_
 _atom_site_type_symbol
 _atom_site_label
 _atom_site_symmetry_multiplicity
 _atom_site_fract_x
 _atom_site_fract_y
 _atom_site_fract_z
 _atom_site_occupancy
  F  F0  1  0.20819545  0.51748781  0.74986163  1
  F  F1  1  0.29180455  0.48251219  0.24986163  1
  F  F2  1  0.73251219  0.95819545  0.99986163  1
  F  F3  1  0.76748781  0.04180455  0.49986163  1
  F  F4  1  0.29180455  0.51748781  0.25013837  1
  F  F5  1  0.20819545  0.48251219  0.75013837  1
  F  F6  1  0.76748781  0.95819545  0.00013837  1
  F  F7  1  0.73251219  0.04180455  0.50013837  1
  F  F8  1  0.79180455  0.48251219  0.25013837  1
  F  F9  1  0.70819545  0.51748781  0.75013837  1
  F  F10  1  0.26748781  0.04180455  0.00013837  1
  F  F11  1  0.23251219  0.95819545  0.50013837  1
  F  F12  1  0.70819545  0.48251219  0.74986163  1
  F  F13  1  0.79180455  0.51748781  0.24986163  1
  F  F14  1  0.23251219  0.04180455  0.99986163  1
  F  F15  1  0.26748781  0.95819545  0.49986163  1
  F  F16  1  0.70819545  0.01748781  0.24986163  1
  F  F17  1  0.79180455  0.98251219  0.74986163  1
  F  F18  1  0.23251219  0.45819545  0.49986163  1
  F  F19  1  0.26748781  0.54180455  0.99986163  1
  F  F20  1  0.79180455  0.01748781  0.75013837  1
  F  F21  1  0.70819545  0.98251219  0.25013837  1
  F  F22  1  0.26748781  0.45819545  0.50013837  1
  F  F23  1  0.23251219  0.54180455  0.00013837  1
  F  F24  1  0.29180455  0.98251219  0.75013837  1
  F  F25  1  0.20819545  0.01748781  0.25013837  1
  F  F26  1  0.76748781  0.54180455  0.50013837  1
  F  F27  1  0.73251219  0.45819545  0.00013837  1
  F  F28  1  0.20819545  0.98251219  0.24986163  1
  F  F29  1  0.29180455  0.01748781  0.74986163  1
  F  F30  1  0.73251219  0.54180455  0.49986163  1
  F  F31  1  0.76748781  0.45819545  0.99986163  1
  F  F32  1  0.55477591  0.80477591  0.12500000  1
  F  F33  1  0.94522409  0.19522409  0.62500000  1
  F  F34  1  0.44522409  0.30477591  0.37500000  1
  F  F35  1  0.05477591  0.69522409  0.87500000  1
  F  F36  1  0.44522409  0.19522409  0.87500000  1
  F  F37  1  0.05477591  0.80477591  0.37500000  1
  F  F38  1  0.55477591  0.69522409  0.62500000  1
  F  F39  1  0.94522409  0.30477591  0.12500000  1
  F  F40  1  0.05477591  0.30477591  0.62500000  1
  F  F41  1  0.44522409  0.69522409  0.12500000  1
  F  F42  1  0.94522409  0.80477591  0.87500000  1
  F  F43  1  0.55477591  0.19522409  0.37500000  1
  F  F44  1  0.94522409  0.69522409  0.37500000  1
  F  F45  1  0.55477591  0.30477591  0.87500000  1
  F  F46  1  0.05477591  0.19522409  0.12500000  1
  F  F47  1  0.44522409  0.80477591  0.62500000  1
  F  F48  1  0.17148596  0.42148596  0.12500000  1
  F  F49  1  0.32851404  0.57851404  0.62500000  1
  F  F50  1  0.82851404  0.92148596  0.37500000  1
  F  F51  1  0.67148596  0.07851404  0.87500000  1
  F  F52  1  0.82851404  0.57851404  0.87500000  1
  F  F53  1  0.67148596  0.42148596  0.37500000  1
  F  F54  1  0.17148596  0.07851404  0.62500000  1
  F  F55  1  0.32851404  0.92148596  0.12500000  1
  F  F56  1  0.67148596  0.92148596  0.62500000  1
  F  F57  1  0.82851404  0.07851404  0.12500000  1
  F  F58  1  0.32851404  0.42148596  0.87500000  1
  F  F59  1  0.17148596  0.57851404  0.37500000  1
  F  F60  1  0.32851404  0.07851404  0.37500000  1
  F  F61  1  0.17148596  0.92148596  0.87500000  1
  F  F62  1  0.67148596  0.57851404  0.12500000  1
  F  F63  1  0.82851404  0.42148596  0.62500000  1
  Li  Li64  1  0.00000000  0.00000000  0.00000000  1
  Li  Li65  1  0.50000000  0.00000000  0.50000000  1
  Li  Li66  1  0.25000000  0.75000000  0.25000000  1
  Li  Li67  1  0.25000000  0.25000000  0.75000000  1
  Li  Li68  1  0.50000000  0.00000000  0.00000000  1
  Li  Li69  1  0.00000000  0.00000000  0.50000000  1
  Li  Li70  1  0.25000000  0.75000000  0.75000000  1
  Li  Li71  1  0.25000000  0.25000000  0.25000000  1
  Li  Li72  1  0.50000000  0.50000000  0.50000000  1
  Li  Li73  1  0.00000000  0.50000000  0.00000000  1
  Li  Li74  1  0.75000000  0.25000000  0.75000000  1
  Li  Li75  1  0.75000000  0.75000000  0.25000000  1
  Li  Li76  1  0.00000000  0.50000000  0.50000000  1
  Li  Li77  1  0.50000000  0.50000000  0.00000000  1
  Li  Li78  1  0.75000000  0.25000000  0.25000000  1
  Li  Li79  1  0.75000000  0.75000000  0.75000000  1
  Li  Li80  1  0.70634437  0.82802400  0.38555060  1
  Li  Li81  1  -0.20634437  -0.82802400  0.88555060  1
  Li  Li82  1  -0.57802400  1.45634437  0.63555060  1
  Li  Li83  1  1.07802400  -0.45634437  1.13555060  1
  Li  Li84  1  -0.20634437  0.82802400  -0.38555060  1
  Li  Li85  1  0.70634437  -0.82802400  0.11444940  1
  Li  Li86  1  1.07802400  1.45634437  0.36444940  1
  Li  Li87  1  -0.57802400  -0.45634437  -0.13555060  1
  Li  Li88  1  -0.70634437  -0.82802400  -0.38555060  1
  Li  Li89  1  1.20634437  0.82802400  0.11444940  1
  Li  Li90  1  1.57802400  -0.45634437  0.36444940  1
  Li  Li91  1  -0.07802400  1.45634437  -0.13555060  1
  Li  Li92  1  1.20634437  -0.82802400  0.38555060  1
  Li  Li93  1  -0.70634437  0.82802400  0.88555060  1
  Li  Li94  1  -0.07802400  -0.45634437  0.63555060  1
  Li  Li95  1  1.57802400  1.45634437  1.13555060  1
  Li  Li96  1  1.20634437  1.32802400  0.88555060  1
  Li  Li97  1  0.29365563  -0.32802400  1.38555060  1
  Li  Li98  1  -0.07802400  1.95634437  1.13555060  1
  Li  Li99  1  1.57802400  0.04365563  1.63555060  1
  Li  Li100  1  0.29365563  1.32802400  0.11444940  1
  Li  Li101  1  1.20634437  -0.32802400  0.61444940  1
  Li  Li102  1  1.57802400  1.95634437  0.86444940  1
  Li  Li103  1  -0.07802400  0.04365563  0.36444940  1
  Li  Li104  1  -0.20634437  -0.32802400  0.11444940  1
  Li  Li105  1  1.70634437  1.32802400  0.61444940  1
  Li  Li106  1  2.07802400  0.04365563  0.86444940  1
  Li  Li107  1  0.42197600  1.95634437  0.36444940  1
  Li  Li108  1  1.70634437  -0.32802400  0.88555060  1
  Li  Li109  1  -0.20634437  1.32802400  1.38555060  1
  Li  Li110  1  0.42197600  0.04365563  1.13555060  1
  Li  Li111  1  2.07802400  1.95634437  1.63555060  1
  Li  Li112  1  0.39538675  0.64538675  0.12500000  1
  Li  Li113  1  0.10461325  0.35461325  0.62500000  1
  Li  Li114  1  0.60461325  0.14538675  0.37500000  1
  Li  Li115  1  0.89538675  0.85461325  0.87500000  1
  Li  Li116  1  0.60461325  0.35461325  0.87500000  1
  Li  Li117  1  0.89538675  0.64538675  0.37500000  1
  Li  Li118  1  0.39538675  0.85461325  0.62500000  1
  Li  Li119  1  0.10461325  0.14538675  0.12500000  1
  Li  Li120  1  0.89538675  0.14538675  0.62500000  1
  Li  Li121  1  0.60461325  0.85461325  0.12500000  1
  Li  Li122  1  0.10461325  0.64538675  0.87500000  1
  Li  Li123  1  0.39538675  0.35461325  0.37500000  1
  Li  Li124  1  0.10461325  0.85461325  0.37500000  1
  Li  Li125  1  0.39538675  0.14538675  0.87500000  1
  Li  Li126  1  0.89538675  0.35461325  0.12500000  1
  Li  Li127  1  0.60461325  0.64538675  0.62500000  1
