# generated using pymatgen
data_LiF
_symmetry_space_group_name_H-M   'P 1'
_cell_length_a   8.18447983
_cell_length_b   8.18447983
_cell_length_c   11.19440494
_cell_angle_alpha   90.00000000
_cell_angle_beta   90.00000000
_cell_angle_gamma   120.00000000
_symmetry_Int_Tables_number   1
_chemical_formula_structural   LiF
_chemical_formula_sum   'Li22 F22'
_cell_volume   649.40228155
_cell_formula_units_Z   22
loop_
 _symmetry_equiv_pos_site_id
 _symmetry_equiv_pos_as_xyz
  1  'x, y, z'
loop_
 _atom_site_type_symbol
 _atom_site_label
 _atom_site_symmetry_multiplicity
 _atom_site_fract_x
 _atom_site_fract_y
 _atom_site_fract_z
 _atom_site_occupancy
  F  F0  1  0.50000000  0.00000000  0.00000000  1
  F  F1  1  0.00000000  0.50000000  0.00000000  1
  F  F2  1  0.50000000  0.50000000  0.00000000  1
  F  F3  1  0.50000000  0.00000000  0.50000000  1
  F  F4  1  0.00000000  0.50000000  0.50000000  1
  F  F5  1  0.50000000  0.50000000  0.50000000  1
  F  F6  1  0.33333333  0.66666667  0.95785932  1
  F  F7  1  0.66666667  0.33333333  0.45785932  1
  F  F8  1  0.66666667  0.33333333  0.04214068  1
  F  F9  1  0.33333333  0.66666667  0.54214068  1
  F  F10  1  0.33333333  0.66666667  0.25000000  1
  F  F11  1  0.66666667  0.33333333  0.75000000  1
  F  F12  1  0.75148838  0.06557305  0.25000000  1
  F  F13  1  0.93442695  0.68591532  0.25000000  1
  F  F14  1  0.31408468  0.24851162  0.25000000  1
  F  F15  1  0.24851162  0.93442695  0.75000000  1
  F  F16  1  0.06557305  0.31408468  0.75000000  1
  F  F17  1  0.68591532  0.75148838  0.75000000  1
  F  F18  1  0.00000000  0.00000000  0.02701383  1
  F  F19  1  0.00000000  0.00000000  0.52701383  1
  F  F20  1  0.00000000  0.00000000  0.97298617  1
  F  F21  1  0.00000000  0.00000000  0.47298617  1
  Li  Li22  1  0.98756055  0.69463461  0.45614127  1
  Li  Li23  1  -0.69463461  0.29292594  0.45614127  1
  Li  Li24  1  -0.29292594  -0.98756055  0.45614127  1
  Li  Li25  1  -0.98756055  -0.69463461  0.95614127  1
  Li  Li26  1  0.69463461  -0.29292594  0.95614127  1
  Li  Li27  1  0.29292594  0.98756055  0.95614127  1
  Li  Li28  1  -0.98756055  -0.69463461  -0.45614127  1
  Li  Li29  1  0.69463461  -0.29292594  -0.45614127  1
  Li  Li30  1  0.29292594  0.98756055  -0.45614127  1
  Li  Li31  1  0.98756055  0.69463461  0.04385873  1
  Li  Li32  1  -0.69463461  0.29292594  0.04385873  1
  Li  Li33  1  -0.29292594  -0.98756055  0.04385873  1
  Li  Li34  1  0.11228402  0.66378173  0.25000000  1
  Li  Li35  1  0.33621827  0.44850229  0.25000000  1
  Li  Li36  1  0.55149771  0.88771598  0.25000000  1
  Li  Li37  1  0.88771598  0.33621827  0.75000000  1
  Li  Li38  1  0.66378173  0.55149771  0.75000000  1
  Li  Li39  1  0.44850229  0.11228402  0.75000000  1
  Li  Li40  1  0.00000000  0.00000000  0.19238877  1
  Li  Li41  1  0.00000000  0.00000000  0.69238877  1
  Li  Li42  1  0.00000000  0.00000000  0.80761123  1
  Li  Li43  1  0.00000000  0.00000000  0.30761123  1
