# generated using pymatgen
data_LiF
_symmetry_space_group_name_H-M   'P 1'
_cell_length_a   7.04676330
_cell_length_b   7.04676330
_cell_length_c   14.47946707
_cell_angle_alpha   90.00000000
_cell_angle_beta   90.00000000
_cell_angle_gamma   90.00000000
_symmetry_Int_Tables_number   1
_chemical_formula_structural   LiF
_chemical_formula_sum   'Li32 F32'
_cell_volume   719.00505676
_cell_formula_units_Z   32
loop_
 _symmetry_equiv_pos_site_id
 _symmetry_equiv_pos_as_xyz
  1  'x, y, z'
loop_
 _atom_site_type_symbol
 _atom_site_label
 _atom_site_symmetry_multiplicity
 _atom_site_fract_x
 _atom_site_fract_y
 _atom_site_fract_z
 _atom_site_occupancy
  F  F0  1  0.00000000  0.00000000  0.00000000  1
  F  F1  1  0.50000000  0.00000000  0.50000000  1
  F  F2  1  0.25000000  0.75000000  0.25000000  1
  F  F3  1  0.25000000  0.25000000  0.75000000  1
  F  F4  1  0.50000000  0.00000000  0.00000000  1
  F  F5  1  0.00000000  0.00000000  0.50000000  1
  F  F6  1  0.25000000  0.75000000  0.75000000  1
  F  F7  1  0.25000000  0.25000000  0.25000000  1
  F  F8  1  0.50000000  0.50000000  0.50000000  1
  F  F9  1  0.00000000  0.50000000  0.00000000  1
  F  F10  1  0.75000000  0.25000000  0.75000000  1
  F  F11  1  0.75000000  0.75000000  0.25000000  1
  F  F12  1  0.00000000  0.50000000  0.50000000  1
  F  F13  1  0.50000000  0.50000000  0.00000000  1
  F  F14  1  0.75000000  0.25000000  0.25000000  1
  F  F15  1  0.75000000  0.75000000  0.75000000  1
  F  F16  1  0.13731343  0.38731343  0.12500000  1
  F  F17  1  0.36268657  0.61268657  0.62500000  1
  F  F18  1  0.86268657  0.88731343  0.37500000  1
  F  F19  1  0.63731343  0.11268657  0.87500000  1
  F  F20  1  0.86268657  0.61268657  0.87500000  1
  F  F21  1  0.63731343  0.38731343  0.37500000  1
  F  F22  1  0.13731343  0.11268657  0.62500000  1
  F  F23  1  0.36268657  0.88731343  0.12500000  1
  F  F24  1  0.63731343  0.88731343  0.62500000  1
  F  F25  1  0.86268657  0.11268657  0.12500000  1
  F  F26  1  0.36268657  0.38731343  0.87500000  1
  F  F27  1  0.13731343  0.61268657  0.37500000  1
  F  F28  1  0.36268657  0.11268657  0.37500000  1
  F  F29  1  0.13731343  0.88731343  0.87500000  1
  F  F30  1  0.63731343  0.61268657  0.12500000  1
  F  F31  1  0.86268657  0.38731343  0.62500000  1
  Li  Li32  1  0.00000000  0.25000000  0.12500000  1
  Li  Li33  1  0.00000000  0.75000000  0.37500000  1
  Li  Li34  1  0.00000000  0.75000000  0.87500000  1
  Li  Li35  1  0.00000000  0.25000000  0.62500000  1
  Li  Li36  1  0.50000000  0.75000000  0.62500000  1
  Li  Li37  1  0.50000000  0.25000000  0.87500000  1
  Li  Li38  1  0.50000000  0.25000000  0.37500000  1
  Li  Li39  1  0.50000000  0.75000000  0.12500000  1
  Li  Li40  1  0.00000000  0.25000000  0.37500000  1
  Li  Li41  1  0.00000000  0.75000000  0.62500000  1
  Li  Li42  1  0.50000000  0.25000000  0.62500000  1
  Li  Li43  1  0.50000000  0.75000000  0.37500000  1
  Li  Li44  1  0.50000000  0.75000000  0.87500000  1
  Li  Li45  1  0.50000000  0.25000000  0.12500000  1
  Li  Li46  1  0.00000000  0.75000000  0.12500000  1
  Li  Li47  1  0.00000000  0.25000000  0.87500000  1
  Li  Li48  1  0.33802216  0.58802216  0.12500000  1
  Li  Li49  1  0.16197784  0.41197784  0.62500000  1
  Li  Li50  1  -0.33802216  1.08802216  0.37500000  1
  Li  Li51  1  0.83802216  -0.08802216  0.87500000  1
  Li  Li52  1  -0.33802216  0.41197784  0.87500000  1
  Li  Li53  1  0.83802216  0.58802216  0.37500000  1
  Li  Li54  1  0.33802216  -0.08802216  0.62500000  1
  Li  Li55  1  0.16197784  1.08802216  0.12500000  1
  Li  Li56  1  0.83802216  1.08802216  0.62500000  1
  Li  Li57  1  0.66197784  0.91197784  1.12500000  1
  Li  Li58  1  0.16197784  1.58802216  0.87500000  1
  Li  Li59  1  1.33802216  0.41197784  1.37500000  1
  Li  Li60  1  0.16197784  0.91197784  1.37500000  1
  Li  Li61  1  1.33802216  1.08802216  0.87500000  1
  Li  Li62  1  0.83802216  0.41197784  1.12500000  1
  Li  Li63  1  0.66197784  1.58802216  0.62500000  1
