# generated using pymatgen
data_LiF
_symmetry_space_group_name_H-M   'P 1'
_cell_length_a   6.81022904
_cell_length_b   11.21760547
_cell_length_c   5.93662284
_cell_angle_alpha   90.00000000
_cell_angle_beta   90.00000000
_cell_angle_gamma   90.00000000
_symmetry_Int_Tables_number   1
_chemical_formula_structural   LiF
_chemical_formula_sum   'Li24 F24'
_cell_volume   453.52511127
_cell_formula_units_Z   24
loop_
 _symmetry_equiv_pos_site_id
 _symmetry_equiv_pos_as_xyz
  1  'x, y, z'
loop_
 _atom_site_type_symbol
 _atom_site_label
 _atom_site_symmetry_multiplicity
 _atom_site_fract_x
 _atom_site_fract_y
 _atom_site_fract_z
 _atom_site_occupancy
  F  F0  1  0.09764710  0.63226948  0.59196031  1
  F  F1  1  0.90235290  0.36773052  0.59196031  1
  F  F2  1  0.40235290  0.13226948  0.40803969  1
  F  F3  1  0.59764710  0.86773052  0.40803969  1
  F  F4  1  0.90235290  0.36773052  0.40803969  1
  F  F5  1  0.09764710  0.63226948  0.40803969  1
  F  F6  1  0.59764710  0.86773052  0.59196031  1
  F  F7  1  0.40235290  0.13226948  0.59196031  1
  F  F8  1  0.97985356  0.62401048  0.42153570  1
  F  F9  1  0.02014644  0.37598952  0.42153570  1
  F  F10  1  0.52014644  0.12401048  0.57846430  1
  F  F11  1  0.47985356  0.87598952  0.57846430  1
  F  F12  1  0.02014644  0.37598952  0.57846430  1
  F  F13  1  0.97985356  0.62401048  0.57846430  1
  F  F14  1  0.47985356  0.87598952  0.42153570  1
  F  F15  1  0.52014644  0.12401048  0.42153570  1
  F  F16  1  0.95472681  0.84358800  0.50000000  1
  F  F17  1  0.04527319  0.15641200  0.50000000  1
  F  F18  1  0.54527319  0.34358800  0.50000000  1
  F  F19  1  0.45472681  0.65641200  0.50000000  1
  F  F20  1  0.94513329  0.92163427  0.50000000  1
  F  F21  1  0.05486671  0.07836573  0.50000000  1
  F  F22  1  0.55486671  0.42163427  0.50000000  1
  F  F23  1  0.44513329  0.57836573  0.50000000  1
  Li  Li24  1  0.16902621  0.74417969  0.00000000  1
  Li  Li25  1  0.83097379  0.25582031  0.00000000  1
  Li  Li26  1  0.33097379  0.24417969  0.00000000  1
  Li  Li27  1  0.66902621  0.75582031  0.00000000  1
  Li  Li28  1  0.27884889  0.30944555  0.69324838  1
  Li  Li29  1  -0.27884889  -0.30944555  0.69324838  1
  Li  Li30  1  0.22115111  0.80944555  -0.69324838  1
  Li  Li31  1  0.77884889  0.19055445  -0.69324838  1
  Li  Li32  1  -0.27884889  -0.30944555  -0.69324838  1
  Li  Li33  1  0.27884889  0.30944555  -0.69324838  1
  Li  Li34  1  0.77884889  0.19055445  0.69324838  1
  Li  Li35  1  0.22115111  0.80944555  0.69324838  1
  Li  Li36  1  0.09076780  0.58794327  0.17161281  1
  Li  Li37  1  0.90923220  0.41205673  0.17161281  1
  Li  Li38  1  0.40923220  0.08794327  0.82838719  1
  Li  Li39  1  0.59076780  0.91205673  0.82838719  1
  Li  Li40  1  0.90923220  0.41205673  0.82838719  1
  Li  Li41  1  0.09076780  0.58794327  0.82838719  1
  Li  Li42  1  0.59076780  0.91205673  0.17161281  1
  Li  Li43  1  0.40923220  0.08794327  0.17161281  1
  Li  Li44  1  0.83925619  0.27865483  0.50000000  1
  Li  Li45  1  0.16074381  0.72134517  0.50000000  1
  Li  Li46  1  0.66074381  0.77865483  0.50000000  1
  Li  Li47  1  0.33925619  0.22134517  0.50000000  1
