# generated using pymatgen
data_Li2Si4Te3F12
_symmetry_space_group_name_H-M   'P 1'
_cell_length_a   10.31309380
_cell_length_b   10.67559192
_cell_length_c   8.94602781
_cell_angle_alpha   90.00000000
_cell_angle_beta   90.00000000
_cell_angle_gamma   90.00000000
_symmetry_Int_Tables_number   1
_chemical_formula_structural   Li2Si4Te3F12
_chemical_formula_sum   'Li8 Si16 Te12 F48'
_cell_volume   984.94317659
_cell_formula_units_Z   4
loop_
 _symmetry_equiv_pos_site_id
 _symmetry_equiv_pos_as_xyz
  1  'x, y, z'
loop_
 _atom_site_type_symbol
 _atom_site_label
 _atom_site_symmetry_multiplicity
 _atom_site_fract_x
 _atom_site_fract_y
 _atom_site_fract_z
 _atom_site_occupancy
  F  F0  1  0.79794130  0.89692845  0.73503402  1
  F  F1  1  0.20205870  0.10307155  0.73503402  1
  F  F2  1  0.70205870  0.39692845  0.76496598  1
  F  F3  1  0.29794130  0.60307155  0.76496598  1
  F  F4  1  0.20205870  0.10307155  0.26496598  1
  F  F5  1  0.79794130  0.89692845  0.26496598  1
  F  F6  1  0.29794130  0.60307155  0.23503402  1
  F  F7  1  0.70205870  0.39692845  0.23503402  1
  F  F8  1  0.00000000  0.00000000  0.50000000  1
  F  F9  1  0.50000000  0.50000000  -0.00000000  1
  F  F10  1  0.41781154  0.12348838  0.36099943  1
  F  F11  1  0.58218846  0.87651162  0.36099943  1
  F  F12  1  0.08218846  0.62348838  0.13900057  1
  F  F13  1  0.91781154  0.37651162  0.13900057  1
  F  F14  1  0.58218846  0.87651162  0.63900057  1
  F  F15  1  0.41781154  0.12348838  0.63900057  1
  F  F16  1  0.91781154  0.37651162  0.86099943  1
  F  F17  1  0.08218846  0.62348838  0.86099943  1
  F  F18  1  0.35602935  0.11339176  0.00000000  1
  F  F19  1  0.64397065  0.88660824  0.00000000  1
  F  F20  1  0.14397065  0.61339176  0.50000000  1
  F  F21  1  0.85602935  0.38660824  0.50000000  1
  F  F22  1  0.00000000  0.00000000  0.00000000  1
  F  F23  1  0.50000000  0.50000000  0.50000000  1
  F  F24  1  0.09201202  0.03920962  0.25623438  1
  F  F25  1  0.90798798  0.96079038  0.25623438  1
  F  F26  1  0.40798798  0.53920962  0.24376562  1
  F  F27  1  0.59201202  0.46079038  0.24376562  1
  F  F28  1  0.90798798  0.96079038  0.74376562  1
  F  F29  1  0.09201202  0.03920962  0.74376562  1
  F  F30  1  0.59201202  0.46079038  0.75623438  1
  F  F31  1  0.40798798  0.53920962  0.75623438  1
  F  F32  1  0.76569300  0.72416866  0.79279912  1
  F  F33  1  0.23430700  0.27583134  0.79279912  1
  F  F34  1  0.73430700  0.22416866  0.70720088  1
  F  F35  1  0.26569300  0.77583134  0.70720088  1
  F  F36  1  0.23430700  0.27583134  0.20720088  1
  F  F37  1  0.76569300  0.72416866  0.20720088  1
  F  F38  1  0.26569300  0.77583134  0.29279912  1
  F  F39  1  0.73430700  0.22416866  0.29279912  1
  F  F40  1  0.55019986  0.55966678  0.20551977  1
  F  F41  1  0.44980014  0.44033322  0.20551977  1
  F  F42  1  0.94980014  0.05966678  0.29448023  1
  F  F43  1  0.05019986  0.94033322  0.29448023  1
  F  F44  1  0.44980014  0.44033322  0.79448023  1
  F  F45  1  0.55019986  0.55966678  0.79448023  1
  F  F46  1  0.05019986  0.94033322  0.70551977  1
  F  F47  1  0.94980014  0.05966678  0.70551977  1
  Li  Li48  1  0.00000000  0.00000000  0.38971488  1
  Li  Li49  1  0.50000000  0.50000000  0.11028512  1
  Li  Li50  1  0.00000000  0.00000000  0.61028512  1
  Li  Li51  1  0.50000000  0.50000000  0.88971488  1
  Li  Li52  1  0.00000000  0.50000000  0.00000000  1
  Li  Li53  1  0.50000000  0.00000000  0.50000000  1
  Li  Li54  1  0.00000000  0.50000000  0.50000000  1
  Li  Li55  1  0.50000000  0.00000000  0.00000000  1
  Si  Si56  1  0.22457443  0.31188597  0.07524594  1
  Si  Si57  1  -0.22457443  -0.31188597  0.07524594  1
  Si  Si58  1  0.27542557  0.81188597  0.42475406  1
  Si  Si59  1  0.72457443  0.18811403  0.42475406  1
  Si  Si60  1  -0.22457443  -0.31188597  -0.07524594  1
  Si  Si61  1  0.22457443  0.31188597  -0.07524594  1
  Si  Si62  1  0.72457443  0.18811403  0.57524594  1
  Si  Si63  1  0.27542557  0.81188597  0.57524594  1
  Si  Si64  1  0.03662821  0.41759239  0.83911976  1
  Si  Si65  1  0.96337179  0.58240761  0.83911976  1
  Si  Si66  1  0.46337179  0.91759239  0.66088024  1
  Si  Si67  1  0.53662821  0.08240761  0.66088024  1
  Si  Si68  1  0.96337179  0.58240761  0.16088024  1
  Si  Si69  1  0.03662821  0.41759239  0.16088024  1
  Si  Si70  1  0.53662821  0.08240761  0.33911976  1
  Si  Si71  1  0.46337179  0.91759239  0.33911976  1
  Te  Te72  1  0.71016164  0.81426543  0.00000000  1
  Te  Te73  1  0.28983836  0.18573457  0.00000000  1
  Te  Te74  1  0.78983836  0.31426543  0.50000000  1
  Te  Te75  1  0.21016164  0.68573457  0.50000000  1
  Te  Te76  1  0.54890468  0.36698219  0.84694181  1
  Te  Te77  1  0.45109532  0.63301781  0.84694181  1
  Te  Te78  1  0.95109532  0.86698219  0.65305819  1
  Te  Te79  1  0.04890468  0.13301781  0.65305819  1
  Te  Te80  1  0.45109532  0.63301781  0.15305819  1
  Te  Te81  1  0.54890468  0.36698219  0.15305819  1
  Te  Te82  1  0.04890468  0.13301781  0.34694181  1
  Te  Te83  1  0.95109532  0.86698219  0.34694181  1
