# generated using pymatgen
data_LiF
_symmetry_space_group_name_H-M   'P 1'
_cell_length_a   7.42445881
_cell_length_b   8.58863025
_cell_length_c   15.89085997
_cell_angle_alpha   90.00000000
_cell_angle_beta   90.00000000
_cell_angle_gamma   90.00000000
_symmetry_Int_Tables_number   1
_chemical_formula_structural   LiF
_chemical_formula_sum   'Li30 F30'
_cell_volume   1013.29548890
_cell_formula_units_Z   30
loop_
 _symmetry_equiv_pos_site_id
 _symmetry_equiv_pos_as_xyz
  1  'x, y, z'
loop_
 _atom_site_type_symbol
 _atom_site_label
 _atom_site_symmetry_multiplicity
 _atom_site_fract_x
 _atom_site_fract_y
 _atom_site_fract_z
 _atom_site_occupancy
  F  F0  1  0.82389779  0.53588199  0.35094403  1
  F  F1  1  0.17610221  0.46411801  0.35094403  1
  F  F2  1  0.67610221  0.03588199  0.64905597  1
  F  F3  1  0.32389779  0.96411801  0.64905597  1
  F  F4  1  0.17610221  0.46411801  0.64905597  1
  F  F5  1  0.82389779  0.53588199  0.64905597  1
  F  F6  1  0.32389779  0.96411801  0.35094403  1
  F  F7  1  0.67610221  0.03588199  0.35094403  1
  F  F8  1  0.62696476  0.41270144  0.50000000  1
  F  F9  1  0.37303524  0.58729856  0.50000000  1
  F  F10  1  0.87303524  0.91270144  0.50000000  1
  F  F11  1  0.12696476  0.08729856  0.50000000  1
  F  F12  1  0.41538761  0.19721487  0.24800169  1
  F  F13  1  0.58461239  0.80278513  0.24800169  1
  F  F14  1  0.08461239  0.69721487  0.75199831  1
  F  F15  1  0.91538761  0.30278513  0.75199831  1
  F  F16  1  0.58461239  0.80278513  0.75199831  1
  F  F17  1  0.41538761  0.19721487  0.75199831  1
  F  F18  1  0.91538761  0.30278513  0.24800169  1
  F  F19  1  0.08461239  0.69721487  0.24800169  1
  F  F20  1  0.56443873  0.16710553  0.91197999  1
  F  F21  1  0.43556127  0.83289447  0.91197999  1
  F  F22  1  0.93556127  0.66710553  0.08802001  1
  F  F23  1  0.06443873  0.33289447  0.08802001  1
  F  F24  1  0.43556127  0.83289447  0.08802001  1
  F  F25  1  0.56443873  0.16710553  0.08802001  1
  F  F26  1  0.06443873  0.33289447  0.91197999  1
  F  F27  1  0.93556127  0.66710553  0.91197999  1
  F  F28  1  0.00000000  0.50000000  0.00000000  1
  F  F29  1  0.50000000  0.00000000  -0.00000000  1
  Li  Li30  1  0.36875454  0.08429038  -0.00000000  1
  Li  Li31  1  0.63124546  0.91570962  -0.00000000  1
  Li  Li32  1  0.13124546  0.58429038  0.00000000  1
  Li  Li33  1  0.86875454  0.41570962  -0.00000000  1
  Li  Li34  1  0.00000000  0.50000000  0.50000000  1
  Li  Li35  1  0.50000000  0.00000000  0.50000000  1
  Li  Li36  1  0.27885152  0.86214486  0.69773907  1
  Li  Li37  1  -0.27885152  -0.86214486  0.69773907  1
  Li  Li38  1  0.22114848  1.36214486  -0.69773907  1
  Li  Li39  1  0.77885152  -0.36214486  -0.69773907  1
  Li  Li40  1  -0.27885152  -0.86214486  -0.69773907  1
  Li  Li41  1  0.27885152  0.86214486  -0.69773907  1
  Li  Li42  1  0.77885152  -0.36214486  0.69773907  1
  Li  Li43  1  0.22114848  1.36214486  0.69773907  1
  Li  Li44  1  0.02359227  0.07534134  0.65123010  1
  Li  Li45  1  0.97640773  0.92465866  0.65123010  1
  Li  Li46  1  0.47640773  0.57534134  0.34876990  1
  Li  Li47  1  0.52359227  0.42465866  0.34876990  1
  Li  Li48  1  0.97640773  0.92465866  0.34876990  1
  Li  Li49  1  0.02359227  0.07534134  0.34876990  1
  Li  Li50  1  0.52359227  0.42465866  0.65123010  1
  Li  Li51  1  0.47640773  0.57534134  0.65123010  1
  Li  Li52  1  0.00000000  0.50000000  0.21863747  1
  Li  Li53  1  0.50000000  0.00000000  0.78136253  1
  Li  Li54  1  0.00000000  0.50000000  0.78136253  1
  Li  Li55  1  0.50000000  0.00000000  0.21863747  1
  Li  Li56  1  0.00000000  0.00000000  0.50000000  1
  Li  Li57  1  0.50000000  0.50000000  0.50000000  1
  Li  Li58  1  0.00000000  0.00000000  0.00000000  1
  Li  Li59  1  0.50000000  0.50000000  -0.00000000  1
