# generated using pymatgen
data_LiF
_symmetry_space_group_name_H-M   'P 1'
_cell_length_a   8.40826516
_cell_length_b   8.40826516
_cell_length_c   8.34066460
_cell_angle_alpha   90.00000000
_cell_angle_beta   90.00000000
_cell_angle_gamma   120.00000000
_symmetry_Int_Tables_number   1
_chemical_formula_structural   LiF
_chemical_formula_sum   'Li22 F22'
_cell_volume   510.67439967
_cell_formula_units_Z   22
loop_
 _symmetry_equiv_pos_site_id
 _symmetry_equiv_pos_as_xyz
  1  'x, y, z'
loop_
 _atom_site_type_symbol
 _atom_site_label
 _atom_site_symmetry_multiplicity
 _atom_site_fract_x
 _atom_site_fract_y
 _atom_site_fract_z
 _atom_site_occupancy
  F  F0  1  0.55810997  0.88897029  0.65413415  1
  F  F1  1  -0.88897029  -0.33086033  0.65413415  1
  F  F2  1  0.33086033  -0.55810997  0.65413415  1
  F  F3  1  -0.55810997  -0.88897029  1.15413415  1
  F  F4  1  0.88897029  0.33086033  1.15413415  1
  F  F5  1  -0.33086033  0.55810997  1.15413415  1
  F  F6  1  -0.55810997  -0.88897029  -0.65413415  1
  F  F7  1  0.88897029  0.33086033  -0.65413415  1
  F  F8  1  -0.33086033  0.55810997  -0.65413415  1
  F  F9  1  0.55810997  0.88897029  -0.15413415  1
  F  F10  1  -0.88897029  -0.33086033  -0.15413415  1
  F  F11  1  0.33086033  -0.55810997  -0.15413415  1
  F  F12  1  0.00000000  0.00000000  0.25000000  1
  F  F13  1  0.00000000  0.00000000  0.75000000  1
  F  F14  1  0.33333333  0.66666667  0.42339555  1
  F  F15  1  0.66666667  0.33333333  0.92339555  1
  F  F16  1  0.66666667  0.33333333  0.57660445  1
  F  F17  1  0.33333333  0.66666667  0.07660445  1
  F  F18  1  0.33333333  0.66666667  0.00478730  1
  F  F19  1  0.66666667  0.33333333  0.50478730  1
  F  F20  1  0.66666667  0.33333333  0.99521270  1
  F  F21  1  0.33333333  0.66666667  0.49521270  1
  Li  Li22  1  0.73840830  0.22559910  0.99473660  1
  Li  Li23  1  0.77440090  0.51280920  0.99473660  1
  Li  Li24  1  0.48719080  0.26159170  0.99473660  1
  Li  Li25  1  0.26159170  0.77440090  0.49473660  1
  Li  Li26  1  0.22559910  0.48719080  0.49473660  1
  Li  Li27  1  0.51280920  0.73840830  0.49473660  1
  Li  Li28  1  0.26159170  0.77440090  0.00526340  1
  Li  Li29  1  0.22559910  0.48719080  0.00526340  1
  Li  Li30  1  0.51280920  0.73840830  0.00526340  1
  Li  Li31  1  0.73840830  0.22559910  0.50526340  1
  Li  Li32  1  0.77440090  0.51280920  0.50526340  1
  Li  Li33  1  0.48719080  0.26159170  0.50526340  1
  Li  Li34  1  0.33333333  0.66666667  0.25000000  1
  Li  Li35  1  0.66666667  0.33333333  0.75000000  1
  Li  Li36  1  0.28694404  0.36361651  0.25000000  1
  Li  Li37  1  0.63638349  0.92332753  0.25000000  1
  Li  Li38  1  0.07667247  0.71305596  0.25000000  1
  Li  Li39  1  0.71305596  0.63638349  0.75000000  1
  Li  Li40  1  0.36361651  0.07667247  0.75000000  1
  Li  Li41  1  0.92332753  0.28694404  0.75000000  1
  Li  Li42  1  0.00000000  0.00000000  0.00000000  1
  Li  Li43  1  0.00000000  0.00000000  0.50000000  1
