# generated using pymatgen
data_LiF
_symmetry_space_group_name_H-M   'P 1'
_cell_length_a   5.89240148
_cell_length_b   8.91840005
_cell_length_c   6.27211192
_cell_angle_alpha   90.00000000
_cell_angle_beta   90.00000000
_cell_angle_gamma   90.00000000
_symmetry_Int_Tables_number   1
_chemical_formula_structural   LiF
_chemical_formula_sum   'Li12 F12'
_cell_volume   329.60445871
_cell_formula_units_Z   12
loop_
 _symmetry_equiv_pos_site_id
 _symmetry_equiv_pos_as_xyz
  1  'x, y, z'
loop_
 _atom_site_type_symbol
 _atom_site_label
 _atom_site_symmetry_multiplicity
 _atom_site_fract_x
 _atom_site_fract_y
 _atom_site_fract_z
 _atom_site_occupancy
  F  F0  1  0.08472103  0.89871840  0.72541861  1
  F  F1  1  -0.08472103  -0.89871840  0.72541861  1
  F  F2  1  0.41527897  1.39871840  -0.22541861  1
  F  F3  1  0.58472103  -0.39871840  -0.22541861  1
  F  F4  1  -0.08472103  -0.89871840  -0.72541861  1
  F  F5  1  0.08472103  0.89871840  -0.72541861  1
  F  F6  1  0.58472103  -0.39871840  1.22541861  1
  F  F7  1  0.41527897  1.39871840  1.22541861  1
  F  F8  1  0.98091985  0.68838299  0.00000000  1
  F  F9  1  0.01908015  0.31161701  0.00000000  1
  F  F10  1  0.51908015  0.18838299  0.50000000  1
  F  F11  1  0.48091985  0.81161701  0.50000000  1
  Li  Li12  1  0.67531874  0.70208873  0.66984837  1
  Li  Li13  1  0.32468126  0.29791127  0.66984837  1
  Li  Li14  1  0.82468126  0.20208873  0.83015163  1
  Li  Li15  1  0.17531874  0.79791127  0.83015163  1
  Li  Li16  1  0.32468126  0.29791127  0.33015163  1
  Li  Li17  1  0.67531874  0.70208873  0.33015163  1
  Li  Li18  1  0.17531874  0.79791127  0.16984837  1
  Li  Li19  1  0.82468126  0.20208873  0.16984837  1
  Li  Li20  1  0.00000000  0.00000000  0.50000000  1
  Li  Li21  1  0.50000000  0.50000000  -0.00000000  1
  Li  Li22  1  0.00000000  0.00000000  0.00000000  1
  Li  Li23  1  0.50000000  0.50000000  0.50000000  1
