# generated using pymatgen
data_LiF
_symmetry_space_group_name_H-M   'P 1'
_cell_length_a   4.56949789
_cell_length_b   4.56949789
_cell_length_c   19.93298665
_cell_angle_alpha   90.00000000
_cell_angle_beta   90.00000000
_cell_angle_gamma   120.00000000
_symmetry_Int_Tables_number   1
_chemical_formula_structural   LiF
_chemical_formula_sum   'Li18 F18'
_cell_volume   360.44580079
_cell_formula_units_Z   18
loop_
 _symmetry_equiv_pos_site_id
 _symmetry_equiv_pos_as_xyz
  1  'x, y, z'
loop_
 _atom_site_type_symbol
 _atom_site_label
 _atom_site_symmetry_multiplicity
 _atom_site_fract_x
 _atom_site_fract_y
 _atom_site_fract_z
 _atom_site_occupancy
  F  F0  1  0.48707776  0.51292224  0.50000000  1
  F  F1  1  0.48707776  0.97415552  0.50000000  1
  F  F2  1  0.02584448  0.51292224  0.50000000  1
  F  F3  1  0.52060336  0.10127713  0.86520307  1
  F  F4  1  0.89872287  0.41932623  0.86520307  1
  F  F5  1  0.58067377  0.47939664  0.86520307  1
  F  F6  1  0.89872287  0.47939664  0.13479693  1
  F  F7  1  0.58067377  0.10127713  0.13479693  1
  F  F8  1  0.52060336  0.41932623  0.13479693  1
  F  F9  1  0.69062912  0.52186038  0.75867263  1
  F  F10  1  0.47813962  0.16876875  0.75867263  1
  F  F11  1  0.83123125  0.30937088  0.75867263  1
  F  F12  1  0.47813962  0.30937088  0.24132737  1
  F  F13  1  0.83123125  0.52186038  0.24132737  1
  F  F14  1  0.69062912  0.16876875  0.24132737  1
  F  F15  1  0.50132102  0.49867898  0.00000000  1
  F  F16  1  0.50132102  0.00264204  0.00000000  1
  F  F17  1  0.99735796  0.49867898  0.00000000  1
  Li  Li18  1  0.41238916  0.48395525  0.37629585  1
  Li  Li19  1  -0.48395525  -0.07156609  0.37629585  1
  Li  Li20  1  0.07156609  -0.41238916  0.37629585  1
  Li  Li21  1  -0.48395525  -0.41238916  -0.37629585  1
  Li  Li22  1  0.07156609  0.48395525  -0.37629585  1
  Li  Li23  1  0.41238916  -0.07156609  -0.37629585  1
  Li  Li24  1  0.33333333  0.66666667  0.20547559  1
  Li  Li25  1  0.33333333  0.66666667  0.79452441  1
  Li  Li26  1  0.55457991  0.78803721  0.92288068  1
  Li  Li27  1  0.21196279  0.76654270  0.92288068  1
  Li  Li28  1  0.23345730  0.44542009  0.92288068  1
  Li  Li29  1  0.21196279  0.44542009  0.07711932  1
  Li  Li30  1  0.23345730  0.78803721  0.07711932  1
  Li  Li31  1  0.55457991  0.76654270  0.07711932  1
  Li  Li32  1  0.66666667  0.33333333  0.00000000  1
  Li  Li33  1  0.00000000  0.00000000  0.00000000  1
  Li  Li34  1  0.66666667  0.33333333  0.28192197  1
  Li  Li35  1  0.66666667  0.33333333  0.71807803  1
