# generated using pymatgen
data_LiF
_symmetry_space_group_name_H-M   'P 1'
_cell_length_a   10.01594484
_cell_length_b   10.01594484
_cell_length_c   5.53307936
_cell_angle_alpha   90.00000000
_cell_angle_beta   90.00000000
_cell_angle_gamma   90.00000000
_symmetry_Int_Tables_number   1
_chemical_formula_structural   LiF
_chemical_formula_sum   'Li23 F23'
_cell_volume   555.07382332
_cell_formula_units_Z   23
loop_
 _symmetry_equiv_pos_site_id
 _symmetry_equiv_pos_as_xyz
  1  'x, y, z'
loop_
 _atom_site_type_symbol
 _atom_site_label
 _atom_site_symmetry_multiplicity
 _atom_site_fract_x
 _atom_site_fract_y
 _atom_site_fract_z
 _atom_site_occupancy
  F  F0  1  0.18375554  0.18375554  0.50000000  1
  F  F1  1  0.81624446  0.81624446  0.50000000  1
  F  F2  1  0.81624446  0.18375554  0.50000000  1
  F  F3  1  0.18375554  0.81624446  0.50000000  1
  F  F4  1  0.57938454  0.00000000  0.00000000  1
  F  F5  1  0.42061546  -0.00000000  0.00000000  1
  F  F6  1  0.00000000  0.57938454  0.00000000  1
  F  F7  1  0.00000000  0.42061546  -0.00000000  1
  F  F8  1  0.50000000  0.50000000  0.21872689  1
  F  F9  1  0.50000000  0.50000000  0.78127311  1
  F  F10  1  0.35233780  0.35233780  0.25789921  1
  F  F11  1  0.64766220  0.64766220  0.25789921  1
  F  F12  1  0.64766220  0.35233780  0.25789921  1
  F  F13  1  0.35233780  0.64766220  0.25789921  1
  F  F14  1  0.64766220  0.35233780  0.74210079  1
  F  F15  1  0.35233780  0.64766220  0.74210079  1
  F  F16  1  0.35233780  0.35233780  0.74210079  1
  F  F17  1  0.64766220  0.64766220  0.74210079  1
  F  F18  1  0.00000000  0.50000000  0.00000000  1
  F  F19  1  0.50000000  -0.00000000  0.00000000  1
  F  F20  1  0.00000000  0.00000000  0.17631078  1
  F  F21  1  0.00000000  0.00000000  0.82368922  1
  F  F22  1  0.50000000  0.50000000  0.50000000  1
  Li  Li23  1  0.00000000  0.00000000  0.00000000  1
  Li  Li24  1  0.30977664  0.30977664  0.50000000  1
  Li  Li25  1  0.69022336  0.69022336  0.50000000  1
  Li  Li26  1  0.69022336  0.30977664  0.50000000  1
  Li  Li27  1  0.30977664  0.69022336  0.50000000  1
  Li  Li28  1  0.14733148  0.00000000  0.50000000  1
  Li  Li29  1  0.85266852  -0.00000000  0.50000000  1
  Li  Li30  1  0.00000000  0.14733148  0.50000000  1
  Li  Li31  1  0.00000000  0.85266852  0.50000000  1
  Li  Li32  1  0.39797940  0.50000000  0.50000000  1
  Li  Li33  1  0.60202060  0.50000000  0.50000000  1
  Li  Li34  1  0.50000000  0.39797940  0.50000000  1
  Li  Li35  1  0.50000000  0.60202060  0.50000000  1
  Li  Li36  1  0.12205729  0.59169465  0.50000000  1
  Li  Li37  1  -0.12205729  -0.59169465  0.50000000  1
  Li  Li38  1  -0.59169465  0.12205729  0.50000000  1
  Li  Li39  1  0.59169465  -0.12205729  0.50000000  1
  Li  Li40  1  -0.12205729  0.59169465  0.50000000  1
  Li  Li41  1  0.12205729  -0.59169465  0.50000000  1
  Li  Li42  1  0.59169465  0.12205729  0.50000000  1
  Li  Li43  1  -0.59169465  -0.12205729  0.50000000  1
  Li  Li44  1  0.00000000  0.50000000  0.50000000  1
  Li  Li45  1  0.50000000  -0.00000000  0.50000000  1
