# generated using pymatgen
data_LiScAlF
_symmetry_space_group_name_H-M   'P 1'
_cell_length_a   3.28500033
_cell_length_b   2.94766007
_cell_length_c   5.46407204
_cell_angle_alpha   100.66952695
_cell_angle_beta   103.82226591
_cell_angle_gamma   102.12242823
_symmetry_Int_Tables_number   1
_chemical_formula_structural   LiScAlF
_chemical_formula_sum   'Li1 Sc1 Al1 F1'
_cell_volume   48.66372950
_cell_formula_units_Z   1
loop_
 _symmetry_equiv_pos_site_id
 _symmetry_equiv_pos_as_xyz
  1  'x, y, z'
loop_
 _atom_site_type_symbol
 _atom_site_label
 _atom_site_symmetry_multiplicity
 _atom_site_fract_x
 _atom_site_fract_y
 _atom_site_fract_z
 _atom_site_occupancy
  F  F0  1  0.00000000  0.00000000  0.00000000  1
  Sc  Sc1  1  0.50000000  0.50000000  0.50000000  1
  Al  Al2  1  0.25000000  0.25000000  0.25000000  1
  Li  Li3  1  0.75000000  0.25000000  0.00000000  1
