# generated using pymatgen
data_LiF
_symmetry_space_group_name_H-M   'P 1'
_cell_length_a   16.05117845
_cell_length_b   6.26458300
_cell_length_c   14.90173308
_cell_angle_alpha   90.00000000
_cell_angle_beta   90.00000000
_cell_angle_gamma   90.00000000
_symmetry_Int_Tables_number   1
_chemical_formula_structural   LiF
_chemical_formula_sum   'Li48 F48'
_cell_volume   1498.42796898
_cell_formula_units_Z   48
loop_
 _symmetry_equiv_pos_site_id
 _symmetry_equiv_pos_as_xyz
  1  'x, y, z'
loop_
 _atom_site_type_symbol
 _atom_site_label
 _atom_site_symmetry_multiplicity
 _atom_site_fract_x
 _atom_site_fract_y
 _atom_site_fract_z
 _atom_site_occupancy
  F  F0  1  0.02982759  0.53429670  0.56020166  1
  F  F1  1  0.97017241  0.46570330  0.56020166  1
  F  F2  1  0.47017241  0.03429670  0.43979834  1
  F  F3  1  0.52982759  0.96570330  0.43979834  1
  F  F4  1  0.97017241  0.46570330  0.43979834  1
  F  F5  1  0.02982759  0.53429670  0.43979834  1
  F  F6  1  0.52982759  0.96570330  0.56020166  1
  F  F7  1  0.47017241  0.03429670  0.56020166  1
  F  F8  1  0.10665121  0.58456903  0.89968721  1
  F  F9  1  0.89334879  0.41543097  0.89968721  1
  F  F10  1  0.39334879  0.08456903  0.10031279  1
  F  F11  1  0.60665121  0.91543097  0.10031279  1
  F  F12  1  0.89334879  0.41543097  0.10031279  1
  F  F13  1  0.10665121  0.58456903  0.10031279  1
  F  F14  1  0.60665121  0.91543097  0.89968721  1
  F  F15  1  0.39334879  0.08456903  0.89968721  1
  F  F16  1  0.13871930  0.49134715  0.79443707  1
  F  F17  1  0.86128070  0.50865285  0.79443707  1
  F  F18  1  0.36128070  0.99134715  0.20556293  1
  F  F19  1  0.63871930  0.00865285  0.20556293  1
  F  F20  1  0.86128070  0.50865285  0.20556293  1
  F  F21  1  0.13871930  0.49134715  0.20556293  1
  F  F22  1  0.63871930  0.00865285  0.79443707  1
  F  F23  1  0.36128070  0.99134715  0.79443707  1
  F  F24  1  0.83923439  0.74832742  0.81809077  1
  F  F25  1  0.16076561  0.25167258  0.81809077  1
  F  F26  1  0.66076561  0.24832742  0.18190923  1
  F  F27  1  0.33923439  0.75167258  0.18190923  1
  F  F28  1  0.16076561  0.25167258  0.18190923  1
  F  F29  1  0.83923439  0.74832742  0.18190923  1
  F  F30  1  0.33923439  0.75167258  0.81809077  1
  F  F31  1  0.66076561  0.24832742  0.81809077  1
  F  F32  1  0.77686252  0.91786032  0.42021715  1
  F  F33  1  0.22313748  0.08213968  0.42021715  1
  F  F34  1  0.72313748  0.41786032  0.57978285  1
  F  F35  1  0.27686252  0.58213968  0.57978285  1
  F  F36  1  0.22313748  0.08213968  0.57978285  1
  F  F37  1  0.77686252  0.91786032  0.57978285  1
  F  F38  1  0.27686252  0.58213968  0.42021715  1
  F  F39  1  0.72313748  0.41786032  0.42021715  1
  F  F40  1  0.81520839  0.40932325  0.82409778  1
  F  F41  1  0.18479161  0.59067675  0.82409778  1
  F  F42  1  0.68479161  0.90932325  0.17590222  1
  F  F43  1  0.31520839  0.09067675  0.17590222  1
  F  F44  1  0.18479161  0.59067675  0.17590222  1
  F  F45  1  0.81520839  0.40932325  0.17590222  1
  F  F46  1  0.31520839  0.09067675  0.82409778  1
  F  F47  1  0.68479161  0.90932325  0.82409778  1
  Li  Li48  1  0.00000000  0.50000000  0.50000000  1
  Li  Li49  1  0.50000000  0.00000000  0.50000000  1
  Li  Li50  1  0.88016709  0.24926251  0.50000000  1
  Li  Li51  1  0.11983291  0.75073749  0.50000000  1
  Li  Li52  1  0.61983291  0.74926251  0.50000000  1
  Li  Li53  1  0.38016709  0.25073749  0.50000000  1
  Li  Li54  1  0.54659318  0.41140229  0.69938572  1
  Li  Li55  1  -0.54659318  -0.41140229  0.69938572  1
  Li  Li56  1  -0.04659318  0.91140229  -0.69938572  1
  Li  Li57  1  1.04659318  0.08859771  -0.69938572  1
  Li  Li58  1  -0.54659318  -0.41140229  -0.69938572  1
  Li  Li59  1  0.54659318  0.41140229  -0.69938572  1
  Li  Li60  1  1.04659318  0.08859771  0.69938572  1
  Li  Li61  1  -0.04659318  0.91140229  0.69938572  1
  Li  Li62  1  0.00000000  0.50000000  0.00000000  1
  Li  Li63  1  0.50000000  0.00000000  0.00000000  1
  Li  Li64  1  0.00000000  0.00000000  0.41000990  1
  Li  Li65  1  0.50000000  0.50000000  0.58999010  1
  Li  Li66  1  0.00000000  0.00000000  0.58999010  1
  Li  Li67  1  0.50000000  0.50000000  0.41000990  1
  Li  Li68  1  0.98251306  0.62316026  0.89122361  1
  Li  Li69  1  0.01748694  0.37683974  0.89122361  1
  Li  Li70  1  0.51748694  0.12316026  0.10877639  1
  Li  Li71  1  0.48251306  0.87683974  0.10877639  1
  Li  Li72  1  0.01748694  0.37683974  0.10877639  1
  Li  Li73  1  0.98251306  0.62316026  0.10877639  1
  Li  Li74  1  0.48251306  0.87683974  0.89122361  1
  Li  Li75  1  0.51748694  0.12316026  0.89122361  1
  Li  Li76  1  0.40889853  0.03458755  0.27238743  1
  Li  Li77  1  0.59110147  0.96541245  0.27238743  1
  Li  Li78  1  0.09110147  0.53458755  0.72761257  1
  Li  Li79  1  0.90889853  0.46541245  0.72761257  1
  Li  Li80  1  0.59110147  0.96541245  0.72761257  1
  Li  Li81  1  0.40889853  0.03458755  0.72761257  1
  Li  Li82  1  0.90889853  0.46541245  0.27238743  1
  Li  Li83  1  0.09110147  0.53458755  0.27238743  1
  Li  Li84  1  0.13259556  0.90160080  0.24439683  1
  Li  Li85  1  0.86740444  0.09839920  0.24439683  1
  Li  Li86  1  0.36740444  0.40160080  0.75560317  1
  Li  Li87  1  0.63259556  0.59839920  0.75560317  1
  Li  Li88  1  0.86740444  0.09839920  0.75560317  1
  Li  Li89  1  0.13259556  0.90160080  0.75560317  1
  Li  Li90  1  0.63259556  0.59839920  0.24439683  1
  Li  Li91  1  0.36740444  0.40160080  0.24439683  1
  Li  Li92  1  0.00000000  0.00000000  0.83798108  1
  Li  Li93  1  0.50000000  0.50000000  0.16201892  1
  Li  Li94  1  0.00000000  0.00000000  0.16201892  1
  Li  Li95  1  0.50000000  0.50000000  0.83798108  1
