# generated using pymatgen
data_LiF
_symmetry_space_group_name_H-M   'P 1'
_cell_length_a   11.07276853
_cell_length_b   11.07276853
_cell_length_c   9.66945830
_cell_angle_alpha   90.00000000
_cell_angle_beta   90.00000000
_cell_angle_gamma   120.00000000
_symmetry_Int_Tables_number   1
_chemical_formula_structural   LiF
_chemical_formula_sum   'Li44 F44'
_cell_volume   1026.70391787
_cell_formula_units_Z   44
loop_
 _symmetry_equiv_pos_site_id
 _symmetry_equiv_pos_as_xyz
  1  'x, y, z'
loop_
 _atom_site_type_symbol
 _atom_site_label
 _atom_site_symmetry_multiplicity
 _atom_site_fract_x
 _atom_site_fract_y
 _atom_site_fract_z
 _atom_site_occupancy
  F  F0  1  0.59650487  0.42521233  0.77090958  1
  F  F1  1  0.57478767  0.17129254  0.77090958  1
  F  F2  1  0.82870746  0.40349513  0.77090958  1
  F  F3  1  0.59650487  0.42521233  0.22909042  1
  F  F4  1  0.57478767  0.17129254  0.22909042  1
  F  F5  1  0.82870746  0.40349513  0.22909042  1
  F  F6  1  0.42521233  0.59650487  0.22909042  1
  F  F7  1  0.17129254  0.57478767  0.22909042  1
  F  F8  1  0.40349513  0.82870746  0.22909042  1
  F  F9  1  0.42521233  0.59650487  0.77090958  1
  F  F10  1  0.17129254  0.57478767  0.77090958  1
  F  F11  1  0.40349513  0.82870746  0.77090958  1
  F  F12  1  0.54126900  0.95263011  0.25498474  1
  F  F13  1  0.04736989  0.58863889  0.25498474  1
  F  F14  1  0.41136111  0.45873100  0.25498474  1
  F  F15  1  0.54126900  0.95263011  0.74501526  1
  F  F16  1  0.04736989  0.58863889  0.74501526  1
  F  F17  1  0.41136111  0.45873100  0.74501526  1
  F  F18  1  0.95263011  0.54126900  0.74501526  1
  F  F19  1  0.58863889  0.04736989  0.74501526  1
  F  F20  1  0.45873100  0.41136111  0.74501526  1
  F  F21  1  0.95263011  0.54126900  0.25498474  1
  F  F22  1  0.58863889  0.04736989  0.25498474  1
  F  F23  1  0.45873100  0.41136111  0.25498474  1
  F  F24  1  0.34085964  0.83084887  0.28172807  1
  F  F25  1  0.16915113  0.51001077  0.28172807  1
  F  F26  1  0.48998923  0.65914036  0.28172807  1
  F  F27  1  0.34085964  0.83084887  0.71827193  1
  F  F28  1  0.16915113  0.51001077  0.71827193  1
  F  F29  1  0.48998923  0.65914036  0.71827193  1
  F  F30  1  0.83084887  0.34085964  0.71827193  1
  F  F31  1  0.51001077  0.16915113  0.71827193  1
  F  F32  1  0.65914036  0.48998923  0.71827193  1
  F  F33  1  0.83084887  0.34085964  0.28172807  1
  F  F34  1  0.51001077  0.16915113  0.28172807  1
  F  F35  1  0.65914036  0.48998923  0.28172807  1
  F  F36  1  0.67844483  0.00000000  0.00000000  1
  F  F37  1  0.00000000  0.67844483  0.00000000  1
  F  F38  1  0.32155517  0.32155517  0.00000000  1
  F  F39  1  0.33333333  0.66666667  0.50000000  1
  F  F40  1  0.66666667  0.33333333  0.50000000  1
  F  F41  1  0.33333333  0.66666667  -0.00000000  1
  F  F42  1  0.66666667  0.33333333  0.00000000  1
  F  F43  1  0.00000000  0.00000000  0.50000000  1
  Li  Li44  1  0.22577877  0.42303656  0.63728632  1
  Li  Li45  1  -0.42303656  -0.19725779  0.63728632  1
  Li  Li46  1  0.19725779  -0.22577877  0.63728632  1
  Li  Li47  1  0.22577877  0.42303656  -0.63728632  1
  Li  Li48  1  -0.42303656  -0.19725779  -0.63728632  1
  Li  Li49  1  0.19725779  -0.22577877  -0.63728632  1
  Li  Li50  1  0.42303656  0.22577877  -0.63728632  1
  Li  Li51  1  -0.19725779  -0.42303656  -0.63728632  1
  Li  Li52  1  -0.22577877  0.19725779  -0.63728632  1
  Li  Li53  1  0.42303656  0.22577877  0.63728632  1
  Li  Li54  1  -0.19725779  -0.42303656  0.63728632  1
  Li  Li55  1  -0.22577877  0.19725779  0.63728632  1
  Li  Li56  1  0.00000000  0.00000000  0.00000000  1
  Li  Li57  1  0.33333333  0.66666667  0.10141113  1
  Li  Li58  1  0.33333333  0.66666667  0.89858887  1
  Li  Li59  1  0.66666667  0.33333333  0.89858887  1
  Li  Li60  1  0.66666667  0.33333333  0.10141113  1
  Li  Li61  1  0.86091235  0.62378530  0.00000000  1
  Li  Li62  1  0.37621470  0.23712705  0.00000000  1
  Li  Li63  1  0.76287295  0.13908765  0.00000000  1
  Li  Li64  1  0.62378530  0.86091235  0.00000000  1
  Li  Li65  1  0.23712705  0.37621470  0.00000000  1
  Li  Li66  1  0.13908765  0.76287295  0.00000000  1
  Li  Li67  1  0.36692182  0.00000000  0.22448774  1
  Li  Li68  1  0.00000000  0.36692182  0.22448774  1
  Li  Li69  1  0.63307818  0.63307818  0.22448774  1
  Li  Li70  1  0.36692182  0.00000000  0.77551226  1
  Li  Li71  1  0.00000000  0.36692182  0.77551226  1
  Li  Li72  1  0.63307818  0.63307818  0.77551226  1
  Li  Li73  1  0.39576489  0.79337963  0.00000000  1
  Li  Li74  1  0.20662037  0.60238525  0.00000000  1
  Li  Li75  1  0.39761475  0.60423511  -0.00000000  1
  Li  Li76  1  0.79337963  0.39576489  -0.00000000  1
  Li  Li77  1  0.60238525  0.20662037  0.00000000  1
  Li  Li78  1  0.60423511  0.39761475  0.00000000  1
  Li  Li79  1  0.52241486  0.00000000  0.50000000  1
  Li  Li80  1  0.00000000  0.52241486  0.50000000  1
  Li  Li81  1  0.47758514  0.47758514  0.50000000  1
  Li  Li82  1  0.78158449  0.00000000  0.64265391  1
  Li  Li83  1  0.00000000  0.78158449  0.64265391  1
  Li  Li84  1  0.21841551  0.21841551  0.64265391  1
  Li  Li85  1  0.78158449  0.00000000  0.35734609  1
  Li  Li86  1  0.00000000  0.78158449  0.35734609  1
  Li  Li87  1  0.21841551  0.21841551  0.35734609  1
