# generated using pymatgen
data_Li2YAs2P3
_symmetry_space_group_name_H-M   'P 1'
_cell_length_a   5.60879990
_cell_length_b   5.65710788
_cell_length_c   7.27918879
_cell_angle_alpha   94.61751962
_cell_angle_beta   99.52599510
_cell_angle_gamma   105.97109993
_symmetry_Int_Tables_number   1
_chemical_formula_structural   Li2YAs2P3
_chemical_formula_sum   'Li2 Y1 As2 P3'
_cell_volume   217.04503961
_cell_formula_units_Z   1
loop_
 _symmetry_equiv_pos_site_id
 _symmetry_equiv_pos_as_xyz
  1  'x, y, z'
loop_
 _atom_site_type_symbol
 _atom_site_label
 _atom_site_symmetry_multiplicity
 _atom_site_fract_x
 _atom_site_fract_y
 _atom_site_fract_z
 _atom_site_occupancy
  P  P0  1  0.00000000  0.00000000  0.00000000  1
  P  P1  1  0.50000000  0.50000000  0.50000000  1
  P  P2  1  0.25000000  0.25000000  0.25000000  1
  As  As3  1  0.75000000  0.25000000  0.00000000  1
  As  As4  1  0.25000000  0.75000000  0.50000000  1
  Li  Li5  1  0.58599604  0.18399409  0.79639734  1
  Li  Li6  1  0.86499899  0.98117166  0.40482750  1
  Y  Y7  1  0.56703910  0.85714162  0.41111797  1
