# generated using pymatgen
data_LiF
_symmetry_space_group_name_H-M   'P 1'
_cell_length_a   10.24091860
_cell_length_b   10.24091860
_cell_length_c   3.73878536
_cell_angle_alpha   90.00000000
_cell_angle_beta   90.00000000
_cell_angle_gamma   120.00000000
_symmetry_Int_Tables_number   1
_chemical_formula_structural   LiF
_chemical_formula_sum   'Li17 F17'
_cell_volume   339.57756794
_cell_formula_units_Z   17
loop_
 _symmetry_equiv_pos_site_id
 _symmetry_equiv_pos_as_xyz
  1  'x, y, z'
loop_
 _atom_site_type_symbol
 _atom_site_label
 _atom_site_symmetry_multiplicity
 _atom_site_fract_x
 _atom_site_fract_y
 _atom_site_fract_z
 _atom_site_occupancy
  F  F0  1  0.20238669  0.51606611  0.86732606  1
  F  F1  1  0.48393389  0.68632058  0.86732606  1
  F  F2  1  0.31367942  0.79761331  0.86732606  1
  F  F3  1  0.48393389  0.79761331  0.13267394  1
  F  F4  1  0.31367942  0.51606611  0.13267394  1
  F  F5  1  0.20238669  0.68632058  0.13267394  1
  F  F6  1  0.47178243  0.52821757  0.00000000  1
  F  F7  1  0.47178243  0.94356485  -0.00000000  1
  F  F8  1  0.05643515  0.52821757  0.00000000  1
  F  F9  1  0.29872754  0.77612618  0.35886618  1
  F  F10  1  0.22387382  0.52260136  0.35886618  1
  F  F11  1  0.47739864  0.70127246  0.35886618  1
  F  F12  1  0.22387382  0.70127246  0.64113382  1
  F  F13  1  0.47739864  0.77612618  0.64113382  1
  F  F14  1  0.29872754  0.52260136  0.64113382  1
  F  F15  1  0.00000000  0.00000000  0.00000000  1
  F  F16  1  0.00000000  0.00000000  0.50000000  1
  Li  Li17  1  0.66666667  0.33333333  0.50000000  1
  Li  Li18  1  0.52277926  0.47722074  0.50000000  1
  Li  Li19  1  0.52277926  0.04555853  0.50000000  1
  Li  Li20  1  0.95444147  0.47722074  0.50000000  1
  Li  Li21  1  0.99077648  0.63697652  0.59197636  1
  Li  Li22  1  -0.63697652  0.35379997  0.59197636  1
  Li  Li23  1  -0.35379997  -0.99077648  0.59197636  1
  Li  Li24  1  -0.63697652  -0.99077648  -0.59197636  1
  Li  Li25  1  -0.35379997  0.63697652  -0.59197636  1
  Li  Li26  1  0.99077648  0.35379997  -0.59197636  1
  Li  Li27  1  0.23324099  0.85408830  0.34911847  1
  Li  Li28  1  0.14591170  0.37915269  0.34911847  1
  Li  Li29  1  0.62084731  0.76675901  0.34911847  1
  Li  Li30  1  0.14591170  0.76675901  0.65088153  1
  Li  Li31  1  0.62084731  0.85408830  0.65088153  1
  Li  Li32  1  0.23324099  0.37915269  0.65088153  1
  Li  Li33  1  0.33333333  0.66666667  0.00000000  1
