# generated using pymatgen
data_LiF
_symmetry_space_group_name_H-M   'P 1'
_cell_length_a   9.93731266
_cell_length_b   9.97060710
_cell_length_c   9.48739890
_cell_angle_alpha   90.00000000
_cell_angle_beta   90.00000000
_cell_angle_gamma   90.00000000
_symmetry_Int_Tables_number   1
_chemical_formula_structural   LiF
_chemical_formula_sum   'Li24 F24'
_cell_volume   940.02135183
_cell_formula_units_Z   24
loop_
 _symmetry_equiv_pos_site_id
 _symmetry_equiv_pos_as_xyz
  1  'x, y, z'
loop_
 _atom_site_type_symbol
 _atom_site_label
 _atom_site_symmetry_multiplicity
 _atom_site_fract_x
 _atom_site_fract_y
 _atom_site_fract_z
 _atom_site_occupancy
  F  F0  1  0.62785250  0.79862351  0.40261623  1
  F  F1  1  0.37214750  0.20137649  0.40261623  1
  F  F2  1  0.87214750  0.29862351  0.09738377  1
  F  F3  1  0.12785250  0.70137649  0.09738377  1
  F  F4  1  0.37214750  0.20137649  0.59738377  1
  F  F5  1  0.62785250  0.79862351  0.59738377  1
  F  F6  1  0.12785250  0.70137649  0.90261623  1
  F  F7  1  0.87214750  0.29862351  0.90261623  1
  F  F8  1  0.79204619  0.65095209  0.71296788  1
  F  F9  1  0.20795381  0.34904791  0.71296788  1
  F  F10  1  0.70795381  0.15095209  0.78703212  1
  F  F11  1  0.29204619  0.84904791  0.78703212  1
  F  F12  1  0.20795381  0.34904791  0.28703212  1
  F  F13  1  0.79204619  0.65095209  0.28703212  1
  F  F14  1  0.29204619  0.84904791  0.21296788  1
  F  F15  1  0.70795381  0.15095209  0.21296788  1
  F  F16  1  0.00000000  0.00000000  0.50000000  1
  F  F17  1  0.50000000  0.50000000  0.00000000  1
  F  F18  1  0.00000000  0.50000000  0.29374275  1
  F  F19  1  0.50000000  0.00000000  0.20625725  1
  F  F20  1  0.00000000  0.50000000  0.70625725  1
  F  F21  1  0.50000000  0.00000000  0.79374275  1
  F  F22  1  0.00000000  0.00000000  0.00000000  1
  F  F23  1  0.50000000  0.50000000  0.50000000  1
  Li  Li24  1  0.61753028  0.65442268  0.13992669  1
  Li  Li25  1  -0.61753028  -0.65442268  0.13992669  1
  Li  Li26  1  -0.11753028  1.15442268  0.36007331  1
  Li  Li27  1  1.11753028  -0.15442268  0.36007331  1
  Li  Li28  1  -0.61753028  -0.65442268  -0.13992669  1
  Li  Li29  1  0.61753028  0.65442268  -0.13992669  1
  Li  Li30  1  1.11753028  -0.15442268  0.63992669  1
  Li  Li31  1  -0.11753028  1.15442268  0.63992669  1
  Li  Li32  1  0.00000000  0.00000000  0.90146398  1
  Li  Li33  1  0.50000000  0.50000000  0.59853602  1
  Li  Li34  1  0.00000000  0.00000000  0.09853602  1
  Li  Li35  1  0.50000000  0.50000000  0.40146398  1
  Li  Li36  1  0.00000000  0.50000000  0.00000000  1
  Li  Li37  1  0.50000000  0.00000000  0.50000000  1
  Li  Li38  1  0.92992414  0.16158421  0.87996702  1
  Li  Li39  1  0.07007586  0.83841579  0.87996702  1
  Li  Li40  1  0.57007586  0.66158421  0.62003298  1
  Li  Li41  1  0.42992414  0.33841579  0.62003298  1
  Li  Li42  1  0.07007586  0.83841579  0.12003298  1
  Li  Li43  1  0.92992414  0.16158421  0.12003298  1
  Li  Li44  1  0.42992414  0.33841579  0.37996702  1
  Li  Li45  1  0.57007586  0.66158421  0.37996702  1
  Li  Li46  1  0.00000000  0.50000000  0.50000000  1
  Li  Li47  1  0.50000000  0.00000000  0.00000000  1
