# generated using pymatgen
data_Li2Y(P2Se)2
_symmetry_space_group_name_H-M   'P 1'
_cell_length_a   5.02010967
_cell_length_b   5.10448924
_cell_length_c   7.38922893
_cell_angle_alpha   95.78544480
_cell_angle_beta   102.59949599
_cell_angle_gamma   113.23783236
_symmetry_Int_Tables_number   1
_chemical_formula_structural   Li2Y(P2Se)2
_chemical_formula_sum   'Li2 Y1 P4 Se2'
_cell_volume   166.07123129
_cell_formula_units_Z   1
loop_
 _symmetry_equiv_pos_site_id
 _symmetry_equiv_pos_as_xyz
  1  'x, y, z'
loop_
 _atom_site_type_symbol
 _atom_site_label
 _atom_site_symmetry_multiplicity
 _atom_site_fract_x
 _atom_site_fract_y
 _atom_site_fract_z
 _atom_site_occupancy
  P  P0  1  0.00000000  0.00000000  0.00000000  1
  P  P1  1  0.50000000  0.50000000  0.50000000  1
  P  P2  1  0.25000000  0.25000000  0.25000000  1
  P  P3  1  0.75000000  0.25000000  0.00000000  1
  Se  Se4  1  0.25000000  0.75000000  0.50000000  1
  Se  Se5  1  0.46707014  0.99786522  0.30466000  1
  Li  Li6  1  0.23134714  0.02000307  0.14320183  1
  Li  Li7  1  0.65000959  0.70698245  0.88606655  1
  Y  Y8  1  0.11537065  0.42124457  0.59360117  1
