# generated using pymatgen
data_Li2Cu3P2
_symmetry_space_group_name_H-M   'P 1'
_cell_length_a   3.89574553
_cell_length_b   4.19865613
_cell_length_c   6.22872145
_cell_angle_alpha   96.22559884
_cell_angle_beta   101.62617674
_cell_angle_gamma   111.97605199
_symmetry_Int_Tables_number   1
_chemical_formula_structural   Li2Cu3P2
_chemical_formula_sum   'Li2 Cu3 P2'
_cell_volume   90.62572409
_cell_formula_units_Z   1
loop_
 _symmetry_equiv_pos_site_id
 _symmetry_equiv_pos_as_xyz
  1  'x, y, z'
loop_
 _atom_site_type_symbol
 _atom_site_label
 _atom_site_symmetry_multiplicity
 _atom_site_fract_x
 _atom_site_fract_y
 _atom_site_fract_z
 _atom_site_occupancy
  P  P0  1  0.00000000  0.00000000  0.00000000  1
  P  P1  1  0.33300000  0.66700000  0.25000000  1
  Li  Li2  1  0.66700000  0.33300000  0.50000000  1
  Li  Li3  1  0.00000000  0.00000000  0.75000000  1
  Cu  Cu4  1  0.68343711  0.17414533  0.34204242  1
  Cu  Cu5  1  0.26517620  0.16973321  0.47447542  1
  Cu  Cu6  1  0.48480651  0.86212652  0.35074861  1
