# generated using pymatgen
data_LiCaF3
_symmetry_space_group_name_H-M   'P 1'
_cell_length_a   11.63368561
_cell_length_b   11.63368561
_cell_length_c   11.15665936
_cell_angle_alpha   90.00000000
_cell_angle_beta   90.00000000
_cell_angle_gamma   120.00000000
_symmetry_Int_Tables_number   1
_chemical_formula_structural   LiCaF3
_chemical_formula_sum   'Li18 Ca18 F54'
_cell_volume   1307.67388644
_cell_formula_units_Z   18
loop_
 _symmetry_equiv_pos_site_id
 _symmetry_equiv_pos_as_xyz
  1  'x, y, z'
loop_
 _atom_site_type_symbol
 _atom_site_label
 _atom_site_symmetry_multiplicity
 _atom_site_fract_x
 _atom_site_fract_y
 _atom_site_fract_z
 _atom_site_occupancy
  Ca  Ca0  1  0.50000000  0.00000000  0.00000000  1
  Ca  Ca1  1  0.00000000  0.50000000  0.00000000  1
  Ca  Ca2  1  0.50000000  0.50000000  0.00000000  1
  Ca  Ca3  1  0.00000000  0.50000000  0.50000000  1
  Ca  Ca4  1  0.50000000  0.00000000  0.50000000  1
  Ca  Ca5  1  0.50000000  0.50000000  0.50000000  1
  Ca  Ca6  1  0.16666667  0.33333333  0.33333333  1
  Ca  Ca7  1  0.66666667  0.83333333  0.33333333  1
  Ca  Ca8  1  0.16666667  0.83333333  0.33333333  1
  Ca  Ca9  1  0.66666667  0.83333333  0.83333333  1
  Ca  Ca10  1  0.16666667  0.33333333  0.83333333  1
  Ca  Ca11  1  0.16666667  0.83333333  0.83333333  1
  Ca  Ca12  1  0.83333333  0.66666667  0.66666667  1
  Ca  Ca13  1  0.33333333  0.16666667  0.66666667  1
  Ca  Ca14  1  0.83333333  0.16666667  0.66666667  1
  Ca  Ca15  1  0.33333333  0.16666667  0.16666667  1
  Ca  Ca16  1  0.83333333  0.66666667  0.16666667  1
  Ca  Ca17  1  0.83333333  0.16666667  0.16666667  1
  F  F18  1  0.76984501  0.23651609  0.45135944  1
  F  F19  1  -0.23651609  0.53332892  0.45135944  1
  F  F20  1  -0.53332892  -0.76984501  0.45135944  1
  F  F21  1  0.23651609  0.76984501  0.04864056  1
  F  F22  1  0.53332892  -0.23651609  0.04864056  1
  F  F23  1  -0.76984501  -0.53332892  0.04864056  1
  F  F24  1  -0.76984501  -0.23651609  -0.45135944  1
  F  F25  1  0.23651609  -0.53332892  -0.45135944  1
  F  F26  1  0.53332892  0.76984501  -0.45135944  1
  F  F27  1  -0.23651609  -0.76984501  0.95135944  1
  F  F28  1  -0.53332892  0.23651609  0.95135944  1
  F  F29  1  0.76984501  0.53332892  0.95135944  1
  F  F30  1  1.43651168  0.56984943  0.78469277  1
  F  F31  1  0.43015057  0.86666225  0.78469277  1
  F  F32  1  0.13333775  -0.43651168  0.78469277  1
  F  F33  1  0.90318276  1.10317834  0.38197390  1
  F  F34  1  1.19999558  0.09681724  0.38197390  1
  F  F35  1  -0.10317834  -0.19999558  0.38197390  1
  F  F36  1  -0.10317834  0.09681724  -0.11802610  1
  F  F37  1  0.90318276  -0.19999558  -0.11802610  1
  F  F38  1  1.19999558  1.10317834  -0.11802610  1
  F  F39  1  0.43015057  -0.43651168  1.28469277  1
  F  F40  1  0.13333775  0.56984943  1.28469277  1
  F  F41  1  1.43651168  0.86666225  1.28469277  1
  F  F42  1  1.10317834  0.90318276  1.11802610  1
  F  F43  1  0.09681724  1.19999558  1.11802610  1
  F  F44  1  -0.19999558  -0.10317834  1.11802610  1
  F  F45  1  0.56984943  1.43651168  0.71530723  1
  F  F46  1  0.86666225  0.43015057  0.71530723  1
  F  F47  1  -0.43651168  0.13333775  0.71530723  1
  F  F48  1  -0.43651168  0.43015057  0.21530723  1
  F  F49  1  0.56984943  0.13333775  0.21530723  1
  F  F50  1  0.86666225  1.43651168  0.21530723  1
  F  F51  1  0.09681724  -0.10317834  1.61802610  1
  F  F52  1  -0.19999558  0.90318276  1.61802610  1
  F  F53  1  1.10317834  1.19999558  1.61802610  1
  F  F54  1  0.00000000  0.00000000  0.00000000  1
  F  F55  1  0.00000000  0.00000000  0.50000000  1
  F  F56  1  0.66666667  0.33333333  0.33333333  1
  F  F57  1  0.66666667  0.33333333  0.83333333  1
  F  F58  1  0.33333333  0.66666667  0.66666667  1
  F  F59  1  0.33333333  0.66666667  0.16666667  1
  F  F60  1  0.00000000  0.00000000  0.31281134  1
  F  F61  1  0.00000000  0.00000000  0.18718866  1
  F  F62  1  0.00000000  0.00000000  0.68718866  1
  F  F63  1  0.00000000  0.00000000  0.81281134  1
  F  F64  1  0.66666667  0.33333333  0.64614467  1
  F  F65  1  0.66666667  0.33333333  0.52052200  1
  F  F66  1  0.66666667  0.33333333  0.02052200  1
  F  F67  1  0.66666667  0.33333333  0.14614467  1
  F  F68  1  0.33333333  0.66666667  0.97947800  1
  F  F69  1  0.33333333  0.66666667  0.85385533  1
  F  F70  1  0.33333333  0.66666667  0.35385533  1
  F  F71  1  0.33333333  0.66666667  0.47947800  1
  Li  Li72  1  0.11037431  0.00000000  0.25000000  1
  Li  Li73  1  0.00000000  0.11037431  0.25000000  1
  Li  Li74  1  0.88962569  0.88962569  0.25000000  1
  Li  Li75  1  0.88962569  0.00000000  0.75000000  1
  Li  Li76  1  0.00000000  0.88962569  0.75000000  1
  Li  Li77  1  0.11037431  0.11037431  0.75000000  1
  Li  Li78  1  0.77704098  0.33333333  0.58333333  1
  Li  Li79  1  0.66666667  0.44370765  0.58333333  1
  Li  Li80  1  0.55629235  0.22295902  0.58333333  1
  Li  Li81  1  0.55629235  0.33333333  0.08333333  1
  Li  Li82  1  0.66666667  0.22295902  0.08333333  1
  Li  Li83  1  0.77704098  0.44370765  0.08333333  1
  Li  Li84  1  0.44370765  0.66666667  0.91666667  1
  Li  Li85  1  0.33333333  0.77704098  0.91666667  1
  Li  Li86  1  0.22295902  0.55629235  0.91666667  1
  Li  Li87  1  0.22295902  0.66666667  0.41666667  1
  Li  Li88  1  0.33333333  0.55629235  0.41666667  1
  Li  Li89  1  0.44370765  0.77704098  0.41666667  1
