# generated using pymatgen
data_LiF
_symmetry_space_group_name_H-M   'P 1'
_cell_length_a   12.16011947
_cell_length_b   12.16011947
_cell_length_c   8.81100460
_cell_angle_alpha   90.00000000
_cell_angle_beta   90.00000000
_cell_angle_gamma   120.00000000
_symmetry_Int_Tables_number   1
_chemical_formula_structural   LiF
_chemical_formula_sum   'Li35 F35'
_cell_volume   1128.31858894
_cell_formula_units_Z   35
loop_
 _symmetry_equiv_pos_site_id
 _symmetry_equiv_pos_as_xyz
  1  'x, y, z'
loop_
 _atom_site_type_symbol
 _atom_site_label
 _atom_site_symmetry_multiplicity
 _atom_site_fract_x
 _atom_site_fract_y
 _atom_site_fract_z
 _atom_site_occupancy
  F  F0  1  0.10816969  0.89183031  0.00000000  1
  F  F1  1  0.10816969  0.21633937  0.00000000  1
  F  F2  1  0.78366063  0.89183031  0.00000000  1
  F  F3  1  0.92201601  0.07798399  0.50000000  1
  F  F4  1  0.92201601  0.84403202  0.50000000  1
  F  F5  1  0.15596798  0.07798399  0.50000000  1
  F  F6  1  0.99335923  0.74817753  0.68014798  1
  F  F7  1  0.25182247  0.24518170  0.68014798  1
  F  F8  1  0.75481830  0.00664077  0.68014798  1
  F  F9  1  0.25182247  0.00664077  0.31985202  1
  F  F10  1  0.75481830  0.74817753  0.31985202  1
  F  F11  1  0.99335923  0.24518170  0.31985202  1
  F  F12  1  0.44383541  0.58034221  0.82734013  1
  F  F13  1  0.41965779  0.86349320  0.82734013  1
  F  F14  1  0.13650680  0.55616459  0.82734013  1
  F  F15  1  0.41965779  0.55616459  0.17265987  1
  F  F16  1  0.13650680  0.58034221  0.17265987  1
  F  F17  1  0.44383541  0.86349320  0.17265987  1
  F  F18  1  0.33333333  0.66666667  0.00000000  1
  F  F19  1  0.92722865  0.52478441  0.46115909  1
  F  F20  1  0.47521559  0.40244424  0.46115909  1
  F  F21  1  0.59755576  0.07277135  0.46115909  1
  F  F22  1  0.47521559  0.07277135  0.53884091  1
  F  F23  1  0.59755576  0.52478441  0.53884091  1
  F  F24  1  0.92722865  0.40244424  0.53884091  1
  F  F25  1  0.40459217  0.11947626  0.47126576  1
  F  F26  1  0.88052374  0.28511590  0.47126576  1
  F  F27  1  0.71488410  0.59540783  0.47126576  1
  F  F28  1  0.88052374  0.59540783  0.52873424  1
  F  F29  1  0.71488410  0.11947626  0.52873424  1
  F  F30  1  0.40459217  0.28511590  0.52873424  1
  F  F31  1  0.05463100  0.94536900  0.50000000  1
  F  F32  1  0.05463100  0.10926200  0.50000000  1
  F  F33  1  0.89073800  0.94536900  0.50000000  1
  F  F34  1  0.00000000  0.00000000  0.00000000  1
  Li  Li35  1  0.78206599  0.70945721  0.16407800  1
  Li  Li36  1  -0.70945721  0.07260878  0.16407800  1
  Li  Li37  1  -0.07260878  -0.78206599  0.16407800  1
  Li  Li38  1  -0.70945721  -0.78206599  -0.16407800  1
  Li  Li39  1  -0.07260878  0.70945721  -0.16407800  1
  Li  Li40  1  0.78206599  0.07260878  -0.16407800  1
  Li  Li41  1  0.66666667  0.33333333  0.57303105  1
  Li  Li42  1  0.66666667  0.33333333  0.42696895  1
  Li  Li43  1  0.54338603  0.70381456  0.30740266  1
  Li  Li44  1  0.29618544  0.83957146  0.30740266  1
  Li  Li45  1  0.16042854  0.45661397  0.30740266  1
  Li  Li46  1  0.29618544  0.45661397  0.69259734  1
  Li  Li47  1  0.16042854  0.70381456  0.69259734  1
  Li  Li48  1  0.54338603  0.83957146  0.69259734  1
  Li  Li49  1  0.07724840  0.03279906  0.38834222  1
  Li  Li50  1  0.96720094  0.04444934  0.38834222  1
  Li  Li51  1  0.95555066  0.92275160  0.38834222  1
  Li  Li52  1  0.96720094  0.92275160  0.61165778  1
  Li  Li53  1  0.95555066  0.03279906  0.61165778  1
  Li  Li54  1  0.07724840  0.04444934  0.61165778  1
  Li  Li55  1  0.02567467  0.21820160  0.80150556  1
  Li  Li56  1  0.78179840  0.80747307  0.80150556  1
  Li  Li57  1  0.19252693  0.97432533  0.80150556  1
  Li  Li58  1  0.78179840  0.97432533  0.19849444  1
  Li  Li59  1  0.19252693  0.21820160  0.19849444  1
  Li  Li60  1  0.02567467  0.80747307  0.19849444  1
  Li  Li61  1  0.28921873  0.37221708  0.47459181  1
  Li  Li62  1  0.62778292  0.91700165  0.47459181  1
  Li  Li63  1  0.08299835  0.71078127  0.47459181  1
  Li  Li64  1  0.62778292  0.71078127  0.52540819  1
  Li  Li65  1  0.08299835  0.37221708  0.52540819  1
  Li  Li66  1  0.28921873  0.91700165  0.52540819  1
  Li  Li67  1  0.33333333  0.66666667  0.50000000  1
  Li  Li68  1  0.33333333  0.66666667  0.32289205  1
  Li  Li69  1  0.33333333  0.66666667  0.67710795  1
