# generated using pymatgen
data_LiYP2Se
_symmetry_space_group_name_H-M   'P 1'
_cell_length_a   4.30771826
_cell_length_b   4.60252395
_cell_length_c   6.91607394
_cell_angle_alpha   95.95326243
_cell_angle_beta   102.96496790
_cell_angle_gamma   113.91188908
_symmetry_Int_Tables_number   1
_chemical_formula_structural   LiYP2Se
_chemical_formula_sum   'Li2 Y2 P4 Se2'
_cell_volume   119.20436021
_cell_formula_units_Z   2
loop_
 _symmetry_equiv_pos_site_id
 _symmetry_equiv_pos_as_xyz
  1  'x, y, z'
loop_
 _atom_site_type_symbol
 _atom_site_label
 _atom_site_symmetry_multiplicity
 _atom_site_fract_x
 _atom_site_fract_y
 _atom_site_fract_z
 _atom_site_occupancy
  P  P0  1  0.00000000  0.00000000  0.00000000  1
  P  P1  1  0.50000000  0.50000000  0.50000000  1
  P  P2  1  0.50000000  0.50000000  0.00000000  1
  P  P3  1  0.50000000  0.00000000  0.50000000  1
  Se  Se4  1  0.00000000  0.50000000  0.50000000  1
  Se  Se5  1  0.38762220  0.11162649  0.24040221  1
  Li  Li6  1  0.54267245  0.95378993  0.89766975  1
  Li  Li7  1  0.66910045  0.78047765  0.22322596  1
  Y  Y8  1  0.04434784  0.88217537  0.31997989  1
  Y  Y9  1  0.07716508  0.97016302  0.71512889  1
