# generated using pymatgen
data_Li3Y2MoP3Se2
_symmetry_space_group_name_H-M   'P 1'
_cell_length_a   6.62680760
_cell_length_b   6.99989173
_cell_length_c   7.77139037
_cell_angle_alpha   91.94178287
_cell_angle_beta   94.22879939
_cell_angle_gamma   97.79937003
_symmetry_Int_Tables_number   1
_chemical_formula_structural   Li3Y2MoP3Se2
_chemical_formula_sum   'Li3 Y2 Mo1 P3 Se2'
_cell_volume   355.83226179
_cell_formula_units_Z   1
loop_
 _symmetry_equiv_pos_site_id
 _symmetry_equiv_pos_as_xyz
  1  'x, y, z'
loop_
 _atom_site_type_symbol
 _atom_site_label
 _atom_site_symmetry_multiplicity
 _atom_site_fract_x
 _atom_site_fract_y
 _atom_site_fract_z
 _atom_site_occupancy
  Se  Se0  1  0.00000000  0.00000000  0.00000000  1
  Se  Se1  1  0.50000000  0.50000000  0.50000000  1
  P  P2  1  0.25000000  0.25000000  0.25000000  1
  P  P3  1  0.75000000  0.25000000  0.00000000  1
  P  P4  1  0.25000000  0.75000000  0.50000000  1
  Mo  Mo5  1  0.97590396  0.23016001  0.70869869  1
  Li  Li6  1  0.07102400  0.75359328  0.90612789  1
  Li  Li7  1  0.10494643  0.58279739  0.60278637  1
  Li  Li8  1  0.36183647  0.17844351  0.42266947  1
  Y  Y9  1  0.06815240  0.76816353  0.65639889  1
  Y  Y10  1  0.72481718  0.35025560  0.59578106  1
