# generated using pymatgen
data_LiF
_symmetry_space_group_name_H-M   'P 1'
_cell_length_a   15.62764468
_cell_length_b   15.62764468
_cell_length_c   5.28451826
_cell_angle_alpha   90.00000000
_cell_angle_beta   90.00000000
_cell_angle_gamma   120.00000000
_symmetry_Int_Tables_number   1
_chemical_formula_structural   LiF
_chemical_formula_sum   'Li42 F42'
_cell_volume   1117.69444175
_cell_formula_units_Z   42
loop_
 _symmetry_equiv_pos_site_id
 _symmetry_equiv_pos_as_xyz
  1  'x, y, z'
loop_
 _atom_site_type_symbol
 _atom_site_label
 _atom_site_symmetry_multiplicity
 _atom_site_fract_x
 _atom_site_fract_y
 _atom_site_fract_z
 _atom_site_occupancy
  F  F0  1  0.52598746  0.41704425  0.99031412  1
  F  F1  1  0.58295575  0.10894321  0.99031412  1
  F  F2  1  0.89105679  0.47401254  0.99031412  1
  F  F3  1  0.47401254  0.58295575  0.49031412  1
  F  F4  1  0.41704425  0.89105679  0.49031412  1
  F  F5  1  0.10894321  0.52598746  0.49031412  1
  F  F6  1  0.47401254  0.58295575  0.00968588  1
  F  F7  1  0.41704425  0.89105679  0.00968588  1
  F  F8  1  0.10894321  0.52598746  0.00968588  1
  F  F9  1  0.52598746  0.41704425  0.50968588  1
  F  F10  1  0.58295575  0.10894321  0.50968588  1
  F  F11  1  0.89105679  0.47401254  0.50968588  1
  F  F12  1  0.12208958  0.49301314  0.06978116  1
  F  F13  1  0.50698686  0.62907644  0.06978116  1
  F  F14  1  0.37092356  0.87791042  0.06978116  1
  F  F15  1  0.87791042  0.50698686  0.56978116  1
  F  F16  1  0.49301314  0.37092356  0.56978116  1
  F  F17  1  0.62907644  0.12208958  0.56978116  1
  F  F18  1  0.87791042  0.50698686  0.93021884  1
  F  F19  1  0.49301314  0.37092356  0.93021884  1
  F  F20  1  0.62907644  0.12208958  0.93021884  1
  F  F21  1  0.12208958  0.49301314  0.43021884  1
  F  F22  1  0.50698686  0.62907644  0.43021884  1
  F  F23  1  0.37092356  0.87791042  0.43021884  1
  F  F24  1  0.33333333  0.66666667  0.55403917  1
  F  F25  1  0.66666667  0.33333333  0.05403917  1
  F  F26  1  0.66666667  0.33333333  0.44596083  1
  F  F27  1  0.33333333  0.66666667  0.94596083  1
  F  F28  1  0.68192786  0.47291907  0.92182257  1
  F  F29  1  0.52708093  0.20900879  0.92182257  1
  F  F30  1  0.79099121  0.31807214  0.92182257  1
  F  F31  1  0.31807214  0.52708093  0.42182257  1
  F  F32  1  0.47291907  0.79099121  0.42182257  1
  F  F33  1  0.20900879  0.68192786  0.42182257  1
  F  F34  1  0.31807214  0.52708093  0.07817743  1
  F  F35  1  0.47291907  0.79099121  0.07817743  1
  F  F36  1  0.20900879  0.68192786  0.07817743  1
  F  F37  1  0.68192786  0.47291907  0.57817743  1
  F  F38  1  0.52708093  0.20900879  0.57817743  1
  F  F39  1  0.79099121  0.31807214  0.57817743  1
  F  F40  1  0.33333333  0.66666667  0.25000000  1
  F  F41  1  0.66666667  0.33333333  0.75000000  1
  Li  Li42  1  0.70184963  0.54048156  0.25000000  1
  Li  Li43  1  0.45951844  0.16136807  0.25000000  1
  Li  Li44  1  0.83863193  0.29815037  0.25000000  1
  Li  Li45  1  0.29815037  0.45951844  0.75000000  1
  Li  Li46  1  0.54048156  0.83863193  0.75000000  1
  Li  Li47  1  0.16136807  0.70184963  0.75000000  1
  Li  Li48  1  0.94890799  0.76402134  0.99378551  1
  Li  Li49  1  -0.76402134  0.18488664  0.99378551  1
  Li  Li50  1  -0.18488664  -0.94890799  0.99378551  1
  Li  Li51  1  -0.94890799  -0.76402134  1.49378551  1
  Li  Li52  1  0.76402134  -0.18488664  1.49378551  1
  Li  Li53  1  0.18488664  0.94890799  1.49378551  1
  Li  Li54  1  -0.94890799  -0.76402134  -0.99378551  1
  Li  Li55  1  0.76402134  -0.18488664  -0.99378551  1
  Li  Li56  1  0.18488664  0.94890799  -0.99378551  1
  Li  Li57  1  0.94890799  0.76402134  -0.49378551  1
  Li  Li58  1  -0.76402134  0.18488664  -0.49378551  1
  Li  Li59  1  -0.18488664  -0.94890799  -0.49378551  1
  Li  Li60  1  0.00000000  0.00000000  0.25000000  1
  Li  Li61  1  0.00000000  0.00000000  0.75000000  1
  Li  Li62  1  0.63262367  0.81600275  0.09894652  1
  Li  Li63  1  0.18399725  0.81662092  0.09894652  1
  Li  Li64  1  0.18337908  0.36737633  0.09894652  1
  Li  Li65  1  0.36737633  0.18399725  0.59894652  1
  Li  Li66  1  0.81600275  0.18337908  0.59894652  1
  Li  Li67  1  0.81662092  0.63262367  0.59894652  1
  Li  Li68  1  0.36737633  0.18399725  0.90105348  1
  Li  Li69  1  0.81600275  0.18337908  0.90105348  1
  Li  Li70  1  0.81662092  0.63262367  0.90105348  1
  Li  Li71  1  0.63262367  0.81600275  0.40105348  1
  Li  Li72  1  0.18399725  0.81662092  0.40105348  1
  Li  Li73  1  0.18337908  0.36737633  0.40105348  1
  Li  Li74  1  0.50000000  0.00000000  -0.00000000  1
  Li  Li75  1  0.00000000  0.50000000  0.00000000  1
  Li  Li76  1  0.50000000  0.50000000  -0.00000000  1
  Li  Li77  1  0.50000000  0.00000000  0.50000000  1
  Li  Li78  1  0.00000000  0.50000000  0.50000000  1
  Li  Li79  1  0.50000000  0.50000000  0.50000000  1
  Li  Li80  1  0.66666667  0.33333333  0.25000000  1
  Li  Li81  1  0.33333333  0.66666667  0.75000000  1
  Li  Li82  1  0.00000000  0.00000000  0.00000000  1
  Li  Li83  1  0.00000000  0.00000000  0.50000000  1
