# generated using pymatgen
data_LiF
_symmetry_space_group_name_H-M   'P 1'
_cell_length_a   8.80550317
_cell_length_b   8.80550317
_cell_length_c   17.92651456
_cell_angle_alpha   90.00000000
_cell_angle_beta   90.00000000
_cell_angle_gamma   120.00000000
_symmetry_Int_Tables_number   1
_chemical_formula_structural   LiF
_chemical_formula_sum   'Li55 F55'
_cell_volume   1203.74596720
_cell_formula_units_Z   55
loop_
 _symmetry_equiv_pos_site_id
 _symmetry_equiv_pos_as_xyz
  1  'x, y, z'
loop_
 _atom_site_type_symbol
 _atom_site_label
 _atom_site_symmetry_multiplicity
 _atom_site_fract_x
 _atom_site_fract_y
 _atom_site_fract_z
 _atom_site_occupancy
  F  F0  1  0.00000000  0.00000000  0.26429872  1
  F  F1  1  0.00000000  0.00000000  0.73570128  1
  F  F2  1  0.13940848  0.65302449  0.61688796  1
  F  F3  1  0.34697551  0.48638399  0.61688796  1
  F  F4  1  0.51361601  0.86059152  0.61688796  1
  F  F5  1  0.34697551  0.86059152  0.38311204  1
  F  F6  1  0.51361601  0.65302449  0.38311204  1
  F  F7  1  0.13940848  0.48638399  0.38311204  1
  F  F8  1  0.12535426  0.83982525  0.72472457  1
  F  F9  1  0.16017475  0.28552901  0.72472457  1
  F  F10  1  0.71447099  0.87464574  0.72472457  1
  F  F11  1  0.16017475  0.87464574  0.27527543  1
  F  F12  1  0.71447099  0.83982525  0.27527543  1
  F  F13  1  0.12535426  0.28552901  0.27527543  1
  F  F14  1  0.32062821  0.04241091  0.68643025  1
  F  F15  1  0.95758909  0.27821729  0.68643025  1
  F  F16  1  0.72178271  0.67937179  0.68643025  1
  F  F17  1  0.95758909  0.67937179  0.31356975  1
  F  F18  1  0.72178271  0.04241091  0.31356975  1
  F  F19  1  0.32062821  0.27821729  0.31356975  1
  F  F20  1  0.01936774  0.30464828  0.44427207  1
  F  F21  1  0.69535172  0.71471946  0.44427207  1
  F  F22  1  0.28528054  0.98063226  0.44427207  1
  F  F23  1  0.69535172  0.98063226  0.55572793  1
  F  F24  1  0.28528054  0.30464828  0.55572793  1
  F  F25  1  0.01936774  0.71471946  0.55572793  1
  F  F26  1  0.08857059  0.07005936  0.10694161  1
  F  F27  1  0.92994064  0.01851123  0.10694161  1
  F  F28  1  0.98148877  0.91142941  0.10694161  1
  F  F29  1  0.92994064  0.91142941  0.89305839  1
  F  F30  1  0.98148877  0.07005936  0.89305839  1
  F  F31  1  0.08857059  0.01851123  0.89305839  1
  F  F32  1  0.10897252  0.67282818  0.01476276  1
  F  F33  1  0.32717182  0.43614435  0.01476276  1
  F  F34  1  0.56385565  0.89102748  0.01476276  1
  F  F35  1  0.32717182  0.89102748  0.98523724  1
  F  F36  1  0.56385565  0.67282818  0.98523724  1
  F  F37  1  0.10897252  0.43614435  0.98523724  1
  F  F38  1  0.58209074  0.26623011  0.74081637  1
  F  F39  1  0.73376989  0.31586062  0.74081637  1
  F  F40  1  0.68413938  0.41790926  0.74081637  1
  F  F41  1  0.73376989  0.41790926  0.25918363  1
  F  F42  1  0.68413938  0.26623011  0.25918363  1
  F  F43  1  0.58209074  0.31586062  0.25918363  1
  F  F44  1  0.38010192  0.77284075  0.71981112  1
  F  F45  1  0.22715925  0.60726117  0.71981112  1
  F  F46  1  0.39273883  0.61989808  0.71981112  1
  F  F47  1  0.22715925  0.61989808  0.28018888  1
  F  F48  1  0.39273883  0.77284075  0.28018888  1
  F  F49  1  0.38010192  0.60726117  0.28018888  1
  F  F50  1  0.50946622  0.49053378  0.00000000  1
  F  F51  1  0.50946622  0.01893244  0.00000000  1
  F  F52  1  0.98106756  0.49053378  0.00000000  1
  F  F53  1  0.66666667  0.33333333  0.46432094  1
  F  F54  1  0.66666667  0.33333333  0.53567906  1
  Li  Li55  1  0.20044609  0.32260275  0.14797386  1
  Li  Li56  1  -0.32260275  -0.12215666  0.14797386  1
  Li  Li57  1  0.12215666  -0.20044609  0.14797386  1
  Li  Li58  1  -0.32260275  -0.20044609  -0.14797386  1
  Li  Li59  1  0.12215666  0.32260275  -0.14797386  1
  Li  Li60  1  0.20044609  -0.12215666  -0.14797386  1
  Li  Li61  1  0.66666667  0.33333333  0.00000000  1
  Li  Li62  1  0.33333333  0.66666667  0.00000000  1
  Li  Li63  1  0.00000000  0.00000000  0.50000000  1
  Li  Li64  1  0.91150811  0.33654043  0.08747473  1
  Li  Li65  1  0.66345957  0.57496768  0.08747473  1
  Li  Li66  1  0.42503232  0.08849189  0.08747473  1
  Li  Li67  1  0.66345957  0.08849189  0.91252527  1
  Li  Li68  1  0.42503232  0.33654043  0.91252527  1
  Li  Li69  1  0.91150811  0.57496768  0.91252527  1
  Li  Li70  1  0.00284120  0.16725775  0.28330229  1
  Li  Li71  1  0.83274225  0.83558344  0.28330229  1
  Li  Li72  1  0.16441656  0.99715880  0.28330229  1
  Li  Li73  1  0.83274225  0.99715880  0.71669771  1
  Li  Li74  1  0.16441656  0.16725775  0.71669771  1
  Li  Li75  1  0.00284120  0.83558344  0.71669771  1
  Li  Li76  1  0.91887742  0.45037266  0.42852227  1
  Li  Li77  1  0.54962734  0.46850477  0.42852227  1
  Li  Li78  1  0.53149523  0.08112258  0.42852227  1
  Li  Li79  1  0.54962734  0.08112258  0.57147773  1
  Li  Li80  1  0.53149523  0.45037266  0.57147773  1
  Li  Li81  1  0.91887742  0.46850477  0.57147773  1
  Li  Li82  1  0.33333333  0.66666667  0.50000000  1
  Li  Li83  1  0.96667177  0.37641339  0.71310866  1
  Li  Li84  1  0.62358661  0.59025838  0.71310866  1
  Li  Li85  1  0.40974162  0.03332823  0.71310866  1
  Li  Li86  1  0.62358661  0.03332823  0.28689134  1
  Li  Li87  1  0.40974162  0.37641339  0.28689134  1
  Li  Li88  1  0.96667177  0.59025838  0.28689134  1
  Li  Li89  1  0.15751069  0.08097587  0.45553000  1
  Li  Li90  1  0.91902413  0.07653482  0.45553000  1
  Li  Li91  1  0.92346518  0.84248931  0.45553000  1
  Li  Li92  1  0.91902413  0.84248931  0.54447000  1
  Li  Li93  1  0.92346518  0.08097587  0.54447000  1
  Li  Li94  1  0.15751069  0.07653482  0.54447000  1
  Li  Li95  1  0.99486868  0.62584894  0.70381298  1
  Li  Li96  1  0.37415106  0.36901974  0.70381298  1
  Li  Li97  1  0.63098026  0.00513132  0.70381298  1
  Li  Li98  1  0.37415106  0.00513132  0.29618702  1
  Li  Li99  1  0.63098026  0.62584894  0.29618702  1
  Li  Li100  1  0.99486868  0.36901974  0.29618702  1
  Li  Li101  1  0.46852440  0.97089573  0.24555013  1
  Li  Li102  1  0.02910427  0.49762867  0.24555013  1
  Li  Li103  1  0.50237133  0.53147560  0.24555013  1
  Li  Li104  1  0.02910427  0.53147560  0.75444987  1
  Li  Li105  1  0.50237133  0.97089573  0.75444987  1
  Li  Li106  1  0.46852440  0.49762867  0.75444987  1
  Li  Li107  1  0.43374983  0.56625017  0.00000000  1
  Li  Li108  1  0.43374983  0.86749967  0.00000000  1
  Li  Li109  1  0.13250033  0.56625017  0.00000000  1
