# generated using pymatgen
data_LiF
_symmetry_space_group_name_H-M   'P 1'
_cell_length_a   5.14221774
_cell_length_b   12.23801785
_cell_length_c   8.76272024
_cell_angle_alpha   90.00000000
_cell_angle_beta   90.00000000
_cell_angle_gamma   90.00000000
_symmetry_Int_Tables_number   1
_chemical_formula_structural   LiF
_chemical_formula_sum   'Li18 F18'
_cell_volume   551.44282625
_cell_formula_units_Z   18
loop_
 _symmetry_equiv_pos_site_id
 _symmetry_equiv_pos_as_xyz
  1  'x, y, z'
loop_
 _atom_site_type_symbol
 _atom_site_label
 _atom_site_symmetry_multiplicity
 _atom_site_fract_x
 _atom_site_fract_y
 _atom_site_fract_z
 _atom_site_occupancy
  F  F0  1  0.52692451  0.75955047  0.50000000  1
  F  F1  1  0.47307549  0.24044953  0.50000000  1
  F  F2  1  0.97307549  0.25955047  0.50000000  1
  F  F3  1  0.02692451  0.74044953  0.50000000  1
  F  F4  1  0.18661569  0.57447741  0.39727595  1
  F  F5  1  -0.18661569  -0.57447741  0.39727595  1
  F  F6  1  0.31338431  1.07447741  -0.39727595  1
  F  F7  1  0.68661569  -0.07447741  -0.39727595  1
  F  F8  1  -0.18661569  -0.57447741  -0.39727595  1
  F  F9  1  0.18661569  0.57447741  -0.39727595  1
  F  F10  1  0.68661569  -0.07447741  0.39727595  1
  F  F11  1  0.31338431  1.07447741  0.39727595  1
  F  F12  1  0.71680792  0.51961871  0.50000000  1
  F  F13  1  0.28319208  0.48038129  0.50000000  1
  F  F14  1  0.78319208  0.01961871  0.50000000  1
  F  F15  1  0.21680792  0.98038129  0.50000000  1
  F  F16  1  0.00000000  0.50000000  0.00000000  1
  F  F17  1  0.50000000  0.00000000  0.00000000  1
  Li  Li18  1  0.19391312  0.13798105  0.50000000  1
  Li  Li19  1  0.80608688  0.86201895  0.50000000  1
  Li  Li20  1  0.30608688  0.63798105  0.50000000  1
  Li  Li21  1  0.69391312  0.36201895  0.50000000  1
  Li  Li22  1  0.73597550  0.15642771  0.88260228  1
  Li  Li23  1  0.26402450  0.84357229  0.88260228  1
  Li  Li24  1  0.76402450  0.65642771  0.11739772  1
  Li  Li25  1  0.23597550  0.34357229  0.11739772  1
  Li  Li26  1  0.26402450  0.84357229  0.11739772  1
  Li  Li27  1  0.73597550  0.15642771  0.11739772  1
  Li  Li28  1  0.23597550  0.34357229  0.88260228  1
  Li  Li29  1  0.76402450  0.65642771  0.88260228  1
  Li  Li30  1  0.00000000  0.00000000  0.31284570  1
  Li  Li31  1  0.50000000  0.50000000  0.68715430  1
  Li  Li32  1  0.00000000  0.00000000  0.68715430  1
  Li  Li33  1  0.50000000  0.50000000  0.31284570  1
  Li  Li34  1  0.00000000  0.00000000  0.00000000  1
  Li  Li35  1  0.50000000  0.50000000  0.00000000  1
