# generated using pymatgen
data_LiF
_symmetry_space_group_name_H-M   'P 1'
_cell_length_a   10.55147728
_cell_length_b   10.55147728
_cell_length_c   11.74093622
_cell_angle_alpha   90.00000000
_cell_angle_beta   90.00000000
_cell_angle_gamma   120.00000000
_symmetry_Int_Tables_number   1
_chemical_formula_structural   LiF
_chemical_formula_sum   'Li41 F41'
_cell_volume   1132.03510964
_cell_formula_units_Z   41
loop_
 _symmetry_equiv_pos_site_id
 _symmetry_equiv_pos_as_xyz
  1  'x, y, z'
loop_
 _atom_site_type_symbol
 _atom_site_label
 _atom_site_symmetry_multiplicity
 _atom_site_fract_x
 _atom_site_fract_y
 _atom_site_fract_z
 _atom_site_occupancy
  F  F0  1  0.09108917  0.73989196  0.13555042  1
  F  F1  1  0.26010804  0.35119721  0.13555042  1
  F  F2  1  0.64880279  0.90891083  0.13555042  1
  F  F3  1  0.09108917  0.73989196  0.86444958  1
  F  F4  1  0.26010804  0.35119721  0.86444958  1
  F  F5  1  0.64880279  0.90891083  0.86444958  1
  F  F6  1  0.73989196  0.09108917  0.86444958  1
  F  F7  1  0.35119721  0.26010804  0.86444958  1
  F  F8  1  0.90891083  0.64880279  0.86444958  1
  F  F9  1  0.73989196  0.09108917  0.13555042  1
  F  F10  1  0.35119721  0.26010804  0.13555042  1
  F  F11  1  0.90891083  0.64880279  0.13555042  1
  F  F12  1  0.58917182  0.87183509  0.38228784  1
  F  F13  1  0.12816491  0.71733673  0.38228784  1
  F  F14  1  0.28266327  0.41082818  0.38228784  1
  F  F15  1  0.58917182  0.87183509  0.61771216  1
  F  F16  1  0.12816491  0.71733673  0.61771216  1
  F  F17  1  0.28266327  0.41082818  0.61771216  1
  F  F18  1  0.87183509  0.58917182  0.61771216  1
  F  F19  1  0.71733673  0.12816491  0.61771216  1
  F  F20  1  0.41082818  0.28266327  0.61771216  1
  F  F21  1  0.87183509  0.58917182  0.38228784  1
  F  F22  1  0.71733673  0.12816491  0.38228784  1
  F  F23  1  0.41082818  0.28266327  0.38228784  1
  F  F24  1  0.31328416  0.80242356  0.75641645  1
  F  F25  1  0.19757644  0.51086060  0.75641645  1
  F  F26  1  0.48913940  0.68671584  0.75641645  1
  F  F27  1  0.31328416  0.80242356  0.24358355  1
  F  F28  1  0.19757644  0.51086060  0.24358355  1
  F  F29  1  0.48913940  0.68671584  0.24358355  1
  F  F30  1  0.80242356  0.31328416  0.24358355  1
  F  F31  1  0.51086060  0.19757644  0.24358355  1
  F  F32  1  0.68671584  0.48913940  0.24358355  1
  F  F33  1  0.80242356  0.31328416  0.75641645  1
  F  F34  1  0.51086060  0.19757644  0.75641645  1
  F  F35  1  0.68671584  0.48913940  0.75641645  1
  F  F36  1  0.33333333  0.66666667  -0.00000000  1
  F  F37  1  0.66666667  0.33333333  -0.00000000  1
  F  F38  1  0.07345135  0.00000000  -0.00000000  1
  F  F39  1  0.00000000  0.07345135  -0.00000000  1
  F  F40  1  0.92654865  0.92654865  -0.00000000  1
  Li  Li41  1  0.66722016  0.58251019  0.20975408  1
  Li  Li42  1  -0.58251019  0.08470997  0.20975408  1
  Li  Li43  1  -0.08470997  -0.66722016  0.20975408  1
  Li  Li44  1  0.66722016  0.58251019  -0.20975408  1
  Li  Li45  1  -0.58251019  0.08470997  -0.20975408  1
  Li  Li46  1  -0.08470997  -0.66722016  -0.20975408  1
  Li  Li47  1  0.58251019  0.66722016  -0.20975408  1
  Li  Li48  1  0.08470997  -0.58251019  -0.20975408  1
  Li  Li49  1  -0.66722016  -0.08470997  -0.20975408  1
  Li  Li50  1  0.58251019  0.66722016  0.20975408  1
  Li  Li51  1  0.08470997  -0.58251019  0.20975408  1
  Li  Li52  1  -0.66722016  -0.08470997  0.20975408  1
  Li  Li53  1  0.68770248  0.00000000  -0.00000000  1
  Li  Li54  1  0.00000000  0.68770248  0.00000000  1
  Li  Li55  1  0.31229752  0.31229752  -0.00000000  1
  Li  Li56  1  0.30008869  0.46099508  -0.00000000  1
  Li  Li57  1  0.53900492  0.83909360  0.00000000  1
  Li  Li58  1  0.16090640  0.69991131  0.00000000  1
  Li  Li59  1  0.46099508  0.30008869  0.00000000  1
  Li  Li60  1  0.83909360  0.53900492  -0.00000000  1
  Li  Li61  1  0.69991131  0.16090640  -0.00000000  1
  Li  Li62  1  0.20517430  0.75191710  0.21036819  1
  Li  Li63  1  0.24808290  0.45325720  0.21036819  1
  Li  Li64  1  0.54674280  0.79482570  0.21036819  1
  Li  Li65  1  0.20517430  0.75191710  0.78963181  1
  Li  Li66  1  0.24808290  0.45325720  0.78963181  1
  Li  Li67  1  0.54674280  0.79482570  0.78963181  1
  Li  Li68  1  0.75191710  0.20517430  0.78963181  1
  Li  Li69  1  0.45325720  0.24808290  0.78963181  1
  Li  Li70  1  0.79482570  0.54674280  0.78963181  1
  Li  Li71  1  0.75191710  0.20517430  0.21036819  1
  Li  Li72  1  0.45325720  0.24808290  0.21036819  1
  Li  Li73  1  0.79482570  0.54674280  0.21036819  1
  Li  Li74  1  0.00000000  0.00000000  0.39347380  1
  Li  Li75  1  0.00000000  0.00000000  0.60652620  1
  Li  Li76  1  0.31037980  0.00000000  0.61280270  1
  Li  Li77  1  0.00000000  0.31037980  0.61280270  1
  Li  Li78  1  0.68962020  0.68962020  0.61280270  1
  Li  Li79  1  0.31037980  0.00000000  0.38719730  1
  Li  Li80  1  0.00000000  0.31037980  0.38719730  1
  Li  Li81  1  0.68962020  0.68962020  0.38719730  1
