# generated using pymatgen
data_LiF
_symmetry_space_group_name_H-M   'P 1'
_cell_length_a   4.31345894
_cell_length_b   8.47805076
_cell_length_c   9.90248533
_cell_angle_alpha   90.00000000
_cell_angle_beta   90.00000000
_cell_angle_gamma   90.00000000
_symmetry_Int_Tables_number   1
_chemical_formula_structural   LiF
_chemical_formula_sum   'Li14 F14'
_cell_volume   362.13115384
_cell_formula_units_Z   14
loop_
 _symmetry_equiv_pos_site_id
 _symmetry_equiv_pos_as_xyz
  1  'x, y, z'
loop_
 _atom_site_type_symbol
 _atom_site_label
 _atom_site_symmetry_multiplicity
 _atom_site_fract_x
 _atom_site_fract_y
 _atom_site_fract_z
 _atom_site_occupancy
  F  F0  1  0.41737371  0.57740686  0.20395654  1
  F  F1  1  -0.41737371  -0.57740686  0.20395654  1
  F  F2  1  0.08262629  1.07740686  -0.20395654  1
  F  F3  1  0.91737371  -0.07740686  -0.20395654  1
  F  F4  1  -0.41737371  -0.57740686  -0.20395654  1
  F  F5  1  0.41737371  0.57740686  -0.20395654  1
  F  F6  1  0.91737371  -0.07740686  0.20395654  1
  F  F7  1  0.08262629  1.07740686  0.20395654  1
  F  F8  1  0.78946036  0.58071282  0.00000000  1
  F  F9  1  0.21053964  0.41928718  0.00000000  1
  F  F10  1  0.71053964  0.08071282  -0.00000000  1
  F  F11  1  0.28946036  0.91928718  0.00000000  1
  F  F12  1  0.00000000  0.00000000  0.00000000  1
  F  F13  1  0.50000000  0.50000000  0.00000000  1
  Li  Li14  1  0.77104348  0.67000021  0.74343773  1
  Li  Li15  1  0.22895652  0.32999979  0.74343773  1
  Li  Li16  1  0.72895652  0.17000021  0.25656227  1
  Li  Li17  1  0.27104348  0.82999979  0.25656227  1
  Li  Li18  1  0.22895652  0.32999979  0.25656227  1
  Li  Li19  1  0.77104348  0.67000021  0.25656227  1
  Li  Li20  1  0.27104348  0.82999979  0.74343773  1
  Li  Li21  1  0.72895652  0.17000021  0.74343773  1
  Li  Li22  1  0.00000000  0.50000000  0.36529914  1
  Li  Li23  1  0.50000000  0.00000000  0.63470086  1
  Li  Li24  1  0.00000000  0.50000000  0.63470086  1
  Li  Li25  1  0.50000000  0.00000000  0.36529914  1
  Li  Li26  1  0.00000000  0.50000000  0.00000000  1
  Li  Li27  1  0.50000000  0.00000000  0.00000000  1
