# generated using pymatgen
data_Li2As4P2Se
_symmetry_space_group_name_H-M   'P 1'
_cell_length_a   4.98100633
_cell_length_b   5.06898423
_cell_length_c   6.92197431
_cell_angle_alpha   94.86885257
_cell_angle_beta   100.26266909
_cell_angle_gamma   108.97954769
_symmetry_Int_Tables_number   1
_chemical_formula_structural   Li2As4P2Se
_chemical_formula_sum   'Li2 As4 P2 Se1'
_cell_volume   160.69797962
_cell_formula_units_Z   1
loop_
 _symmetry_equiv_pos_site_id
 _symmetry_equiv_pos_as_xyz
  1  'x, y, z'
loop_
 _atom_site_type_symbol
 _atom_site_label
 _atom_site_symmetry_multiplicity
 _atom_site_fract_x
 _atom_site_fract_y
 _atom_site_fract_z
 _atom_site_occupancy
  P  P0  1  0.12500000  0.12500000  0.12500000  1
  P  P1  1  0.50000000  0.50000000  0.50000000  1
  Se  Se2  1  0.25000000  0.25000000  0.25000000  1
  As  As3  1  0.75000000  0.75000000  0.75000000  1
  As  As4  1  0.76623643  0.18305871  0.79220141  1
  As  As5  1  0.73893148  0.41667294  0.02813080  1
  As  As6  1  0.01278708  0.43023216  0.07409627  1
  Li  Li7  1  0.30597098  0.68011816  0.34226076  1
  Li  Li8  1  0.26880036  0.62930217  0.09487143  1
