# generated using pymatgen
data_LiF
_symmetry_space_group_name_H-M   'P 1'
_cell_length_a   15.03858843
_cell_length_b   5.18158664
_cell_length_c   11.40222291
_cell_angle_alpha   90.00000000
_cell_angle_beta   90.00000000
_cell_angle_gamma   90.00000000
_symmetry_Int_Tables_number   1
_chemical_formula_structural   LiF
_chemical_formula_sum   'Li36 F36'
_cell_volume   888.50395577
_cell_formula_units_Z   36
loop_
 _symmetry_equiv_pos_site_id
 _symmetry_equiv_pos_as_xyz
  1  'x, y, z'
loop_
 _atom_site_type_symbol
 _atom_site_label
 _atom_site_symmetry_multiplicity
 _atom_site_fract_x
 _atom_site_fract_y
 _atom_site_fract_z
 _atom_site_occupancy
  F  F0  1  0.92059237  0.94289484  0.31869184  1
  F  F1  1  0.57940763  0.05710516  0.81869184  1
  F  F2  1  0.07940763  0.44289484  0.68130816  1
  F  F3  1  0.42059237  0.55710516  0.18130816  1
  F  F4  1  0.07940763  0.05710516  0.68130816  1
  F  F5  1  0.42059237  0.94289484  0.18130816  1
  F  F6  1  0.92059237  0.55710516  0.31869184  1
  F  F7  1  0.57940763  0.44289484  0.81869184  1
  F  F8  1  0.86872238  0.51508889  0.14532440  1
  F  F9  1  0.63127762  0.48491111  0.64532440  1
  F  F10  1  0.13127762  0.01508889  0.85467560  1
  F  F11  1  0.36872238  0.98491111  0.35467560  1
  F  F12  1  0.13127762  0.48491111  0.85467560  1
  F  F13  1  0.36872238  0.51508889  0.35467560  1
  F  F14  1  0.86872238  0.98491111  0.14532440  1
  F  F15  1  0.63127762  0.01508889  0.64532440  1
  F  F16  1  0.98938351  0.83909253  0.31870554  1
  F  F17  1  0.51061649  0.16090747  0.81870554  1
  F  F18  1  0.01061649  0.33909253  0.68129446  1
  F  F19  1  0.48938351  0.66090747  0.18129446  1
  F  F20  1  0.01061649  0.16090747  0.68129446  1
  F  F21  1  0.48938351  0.83909253  0.18129446  1
  F  F22  1  0.98938351  0.66090747  0.31870554  1
  F  F23  1  0.51061649  0.33909253  0.81870554  1
  F  F24  1  0.02514203  0.25000000  0.34534789  1
  F  F25  1  0.47485797  0.75000000  0.84534789  1
  F  F26  1  0.97485797  0.75000000  0.65465211  1
  F  F27  1  0.52514203  0.25000000  0.15465211  1
  F  F28  1  0.57610794  0.25000000  0.34183570  1
  F  F29  1  0.92389206  0.75000000  0.84183570  1
  F  F30  1  0.42389206  0.75000000  0.65816430  1
  F  F31  1  0.07610794  0.25000000  0.15816430  1
  F  F32  1  0.41903901  0.25000000  0.06310683  1
  F  F33  1  0.08096099  0.75000000  0.56310683  1
  F  F34  1  0.58096099  0.75000000  0.93689317  1
  F  F35  1  0.91903901  0.25000000  0.43689317  1
  Li  Li36  1  0.51308366  0.38231101  0.05893825  1
  Li  Li37  1  -0.01308366  -0.38231101  0.55893825  1
  Li  Li38  1  -0.51308366  0.88231101  -0.05893825  1
  Li  Li39  1  1.01308366  0.11768899  0.44106175  1
  Li  Li40  1  -0.51308366  -0.38231101  -0.05893825  1
  Li  Li41  1  1.01308366  0.38231101  0.44106175  1
  Li  Li42  1  0.51308366  0.11768899  0.05893825  1
  Li  Li43  1  -0.01308366  0.88231101  0.55893825  1
  Li  Li44  1  0.65801505  0.25000000  0.73242740  1
  Li  Li45  1  0.84198495  0.75000000  0.23242740  1
  Li  Li46  1  0.34198495  0.75000000  0.26757260  1
  Li  Li47  1  0.15801505  0.25000000  0.76757260  1
  Li  Li48  1  0.49526764  0.25000000  0.34500673  1
  Li  Li49  1  0.00473236  0.75000000  0.84500673  1
  Li  Li50  1  0.50473236  0.75000000  0.65499327  1
  Li  Li51  1  0.99526764  0.25000000  0.15499327  1
  Li  Li52  1  0.87629435  0.38566946  0.95756130  1
  Li  Li53  1  0.62370565  0.61433054  0.45756130  1
  Li  Li54  1  0.12370565  0.88566946  0.04243870  1
  Li  Li55  1  0.37629435  0.11433054  0.54243870  1
  Li  Li56  1  0.12370565  0.61433054  0.04243870  1
  Li  Li57  1  0.37629435  0.38566946  0.54243870  1
  Li  Li58  1  0.87629435  0.11433054  0.95756130  1
  Li  Li59  1  0.62370565  0.88566946  0.45756130  1
  Li  Li60  1  0.25370057  0.25000000  0.38856993  1
  Li  Li61  1  0.24629943  0.75000000  0.88856993  1
  Li  Li62  1  0.74629943  0.75000000  0.61143007  1
  Li  Li63  1  0.75370057  0.25000000  0.11143007  1
  Li  Li64  1  0.00000000  0.00000000  0.00000000  1
  Li  Li65  1  0.50000000  -0.00000000  0.50000000  1
  Li  Li66  1  0.00000000  0.50000000  0.00000000  1
  Li  Li67  1  0.50000000  0.50000000  0.50000000  1
  Li  Li68  1  0.74572294  0.25000000  0.72472289  1
  Li  Li69  1  0.75427706  0.75000000  0.22472289  1
  Li  Li70  1  0.25427706  0.75000000  0.27527711  1
  Li  Li71  1  0.24572294  0.25000000  0.77527711  1
