# generated using pymatgen
data_LiF
_symmetry_space_group_name_H-M   'P 1'
_cell_length_a   7.17784784
_cell_length_b   7.17784784
_cell_length_c   5.87064912
_cell_angle_alpha   90.00000000
_cell_angle_beta   90.00000000
_cell_angle_gamma   120.00000000
_symmetry_Int_Tables_number   1
_chemical_formula_structural   LiF
_chemical_formula_sum   'Li8 F8'
_cell_volume   261.94206787
_cell_formula_units_Z   8
loop_
 _symmetry_equiv_pos_site_id
 _symmetry_equiv_pos_as_xyz
  1  'x, y, z'
loop_
 _atom_site_type_symbol
 _atom_site_label
 _atom_site_symmetry_multiplicity
 _atom_site_fract_x
 _atom_site_fract_y
 _atom_site_fract_z
 _atom_site_occupancy
  F  F0  1  0.00000000  0.00000000  0.79853427  1
  F  F1  1  0.00000000  0.00000000  0.20146573  1
  F  F2  1  0.35787222  0.87038815  0.50000000  1
  F  F3  1  0.12961185  0.48748407  0.50000000  1
  F  F4  1  0.51251593  0.64212778  0.50000000  1
  F  F5  1  0.87038815  0.35787222  0.50000000  1
  F  F6  1  0.48748407  0.12961185  0.50000000  1
  F  F7  1  0.64212778  0.51251593  0.50000000  1
  Li  Li8  1  0.42974452  -0.00000000  0.37767655  1
  Li  Li9  1  0.00000000  0.42974452  0.37767655  1
  Li  Li10  1  -0.42974452  -0.42974452  0.37767655  1
  Li  Li11  1  0.42974452  -0.00000000  -0.37767655  1
  Li  Li12  1  0.00000000  0.42974452  -0.37767655  1
  Li  Li13  1  -0.42974452  -0.42974452  -0.37767655  1
  Li  Li14  1  0.00000000  0.00000000  0.50000000  1
  Li  Li15  1  0.00000000  0.00000000  0.00000000  1
