# generated using pymatgen
data_Li2Si4Te3F12
_symmetry_space_group_name_H-M   'P 1'
_cell_length_a   10.95721562
_cell_length_b   10.95721562
_cell_length_c   11.50042949
_cell_angle_alpha   90.00000000
_cell_angle_beta   90.00000000
_cell_angle_gamma   120.00000000
_symmetry_Int_Tables_number   1
_chemical_formula_structural   Li2Si4Te3F12
_chemical_formula_sum   'Li8 Si16 Te12 F48'
_cell_volume   1195.76299046
_cell_formula_units_Z   4
loop_
 _symmetry_equiv_pos_site_id
 _symmetry_equiv_pos_as_xyz
  1  'x, y, z'
loop_
 _atom_site_type_symbol
 _atom_site_label
 _atom_site_symmetry_multiplicity
 _atom_site_fract_x
 _atom_site_fract_y
 _atom_site_fract_z
 _atom_site_occupancy
  F  F0  1  0.43401501  0.60562887  0.12054479  1
  F  F1  1  -0.60562887  -0.17161386  0.12054479  1
  F  F2  1  0.17161386  -0.43401501  0.12054479  1
  F  F3  1  -0.43401501  -0.60562887  0.62054479  1
  F  F4  1  0.60562887  0.17161386  0.62054479  1
  F  F5  1  -0.17161386  0.43401501  0.62054479  1
  F  F6  1  -0.43401501  -0.60562887  -0.12054479  1
  F  F7  1  0.60562887  0.17161386  -0.12054479  1
  F  F8  1  -0.17161386  0.43401501  -0.12054479  1
  F  F9  1  0.43401501  0.60562887  0.37945521  1
  F  F10  1  -0.60562887  -0.17161386  0.37945521  1
  F  F11  1  0.17161386  -0.43401501  0.37945521  1
  F  F12  1  0.71856681  0.19316250  0.16903237  1
  F  F13  1  0.80683750  0.52540431  0.16903237  1
  F  F14  1  0.47459569  0.28143319  0.16903237  1
  F  F15  1  0.28143319  0.80683750  0.66903237  1
  F  F16  1  0.19316250  0.47459569  0.66903237  1
  F  F17  1  0.52540431  0.71856681  0.66903237  1
  F  F18  1  0.28143319  0.80683750  0.83096763  1
  F  F19  1  0.19316250  0.47459569  0.83096763  1
  F  F20  1  0.52540431  0.71856681  0.83096763  1
  F  F21  1  0.71856681  0.19316250  0.33096763  1
  F  F22  1  0.80683750  0.52540431  0.33096763  1
  F  F23  1  0.47459569  0.28143319  0.33096763  1
  F  F24  1  0.45232342  0.98225657  0.31786782  1
  F  F25  1  0.01774343  0.47006685  0.31786782  1
  F  F26  1  0.52993315  0.54767658  0.31786782  1
  F  F27  1  0.54767658  0.01774343  0.81786782  1
  F  F28  1  0.98225657  0.52993315  0.81786782  1
  F  F29  1  0.47006685  0.45232342  0.81786782  1
  F  F30  1  0.54767658  0.01774343  0.68213218  1
  F  F31  1  0.98225657  0.52993315  0.68213218  1
  F  F32  1  0.47006685  0.45232342  0.68213218  1
  F  F33  1  0.45232342  0.98225657  0.18213218  1
  F  F34  1  0.01774343  0.47006685  0.18213218  1
  F  F35  1  0.52993315  0.54767658  0.18213218  1
  F  F36  1  0.19007220  0.87157109  0.37123403  1
  F  F37  1  0.12842891  0.31850112  0.37123403  1
  F  F38  1  0.68149888  0.80992780  0.37123403  1
  F  F39  1  0.80992780  0.12842891  0.87123403  1
  F  F40  1  0.87157109  0.68149888  0.87123403  1
  F  F41  1  0.31850112  0.19007220  0.87123403  1
  F  F42  1  0.80992780  0.12842891  0.62876597  1
  F  F43  1  0.87157109  0.68149888  0.62876597  1
  F  F44  1  0.31850112  0.19007220  0.62876597  1
  F  F45  1  0.19007220  0.87157109  0.12876597  1
  F  F46  1  0.12842891  0.31850112  0.12876597  1
  F  F47  1  0.68149888  0.80992780  0.12876597  1
  Li  Li48  1  0.64786461  0.67154888  0.25000000  1
  Li  Li49  1  0.32845112  0.97631572  0.25000000  1
  Li  Li50  1  0.02368428  0.35213539  0.25000000  1
  Li  Li51  1  0.35213539  0.32845112  0.75000000  1
  Li  Li52  1  0.67154888  0.02368428  0.75000000  1
  Li  Li53  1  0.97631572  0.64786461  0.75000000  1
  Li  Li54  1  0.00000000  0.00000000  0.00000000  1
  Li  Li55  1  0.00000000  0.00000000  0.50000000  1
  Si  Si56  1  0.56157116  0.93629936  0.25000000  1
  Si  Si57  1  0.06370064  0.62527180  0.25000000  1
  Si  Si58  1  0.37472820  0.43842884  0.25000000  1
  Si  Si59  1  0.43842884  0.06370064  0.75000000  1
  Si  Si60  1  0.93629936  0.37472820  0.75000000  1
  Si  Si61  1  0.62527180  0.56157116  0.75000000  1
  Si  Si62  1  0.74087801  0.53700935  0.25000000  1
  Si  Si63  1  0.46299065  0.20386866  0.25000000  1
  Si  Si64  1  0.79613134  0.25912199  0.25000000  1
  Si  Si65  1  0.25912199  0.46299065  0.75000000  1
  Si  Si66  1  0.53700935  0.79613134  0.75000000  1
  Si  Si67  1  0.20386866  0.74087801  0.75000000  1
  Si  Si68  1  0.00000000  0.00000000  0.25000000  1
  Si  Si69  1  0.00000000  0.00000000  0.75000000  1
  Si  Si70  1  0.33333333  0.66666667  0.25000000  1
  Si  Si71  1  0.66666667  0.33333333  0.75000000  1
  Te  Te72  1  0.66666667  0.33333333  0.25000000  1
  Te  Te73  1  0.33333333  0.66666667  0.75000000  1
  Te  Te74  1  0.50000000  0.00000000  0.00000000  1
  Te  Te75  1  0.00000000  0.50000000  0.00000000  1
  Te  Te76  1  0.50000000  0.50000000  0.00000000  1
  Te  Te77  1  0.50000000  0.00000000  0.50000000  1
  Te  Te78  1  0.00000000  0.50000000  0.50000000  1
  Te  Te79  1  0.50000000  0.50000000  0.50000000  1
  Te  Te80  1  0.00000000  0.00000000  0.63692913  1
  Te  Te81  1  0.00000000  0.00000000  0.13692913  1
  Te  Te82  1  0.00000000  0.00000000  0.36307087  1
  Te  Te83  1  0.00000000  0.00000000  0.86307087  1
