# generated using pymatgen
data_LiF
_symmetry_space_group_name_H-M   'P 1'
_cell_length_a   12.51774329
_cell_length_b   12.51774329
_cell_length_c   6.26013390
_cell_angle_alpha   90.00000000
_cell_angle_beta   90.00000000
_cell_angle_gamma   120.00000000
_symmetry_Int_Tables_number   1
_chemical_formula_structural   LiF
_chemical_formula_sum   'Li42 F42'
_cell_volume   849.50577502
_cell_formula_units_Z   42
loop_
 _symmetry_equiv_pos_site_id
 _symmetry_equiv_pos_as_xyz
  1  'x, y, z'
loop_
 _atom_site_type_symbol
 _atom_site_label
 _atom_site_symmetry_multiplicity
 _atom_site_fract_x
 _atom_site_fract_y
 _atom_site_fract_z
 _atom_site_occupancy
  F  F0  1  0.33333333  0.66666667  0.50000000  1
  F  F1  1  0.28323832  0.98676971  0.74403388  1
  F  F2  1  0.01323029  0.29646861  0.74403388  1
  F  F3  1  0.70353139  0.71676168  0.74403388  1
  F  F4  1  0.01323029  0.71676168  0.25596612  1
  F  F5  1  0.70353139  0.98676971  0.25596612  1
  F  F6  1  0.28323832  0.29646861  0.25596612  1
  F  F7  1  0.66666667  0.33333333  0.50000000  1
  F  F8  1  0.26564782  0.13641793  0.43965407  1
  F  F9  1  0.86358207  0.12922989  0.43965407  1
  F  F10  1  0.87077011  0.73435218  0.43965407  1
  F  F11  1  0.86358207  0.73435218  0.56034593  1
  F  F12  1  0.87077011  0.13641793  0.56034593  1
  F  F13  1  0.26564782  0.12922989  0.56034593  1
  F  F14  1  0.56561581  0.71891701  0.18416044  1
  F  F15  1  0.28108299  0.84669880  0.18416044  1
  F  F16  1  0.15330120  0.43438419  0.18416044  1
  F  F17  1  0.28108299  0.43438419  0.81583956  1
  F  F18  1  0.15330120  0.71891701  0.81583956  1
  F  F19  1  0.56561581  0.84669880  0.81583956  1
  F  F20  1  0.33333333  0.66666667  0.92265948  1
  F  F21  1  0.33333333  0.66666667  0.07734052  1
  F  F22  1  0.00000000  0.00000000  0.67302900  1
  F  F23  1  0.00000000  0.00000000  0.32697100  1
  F  F24  1  0.49230828  0.15199501  0.70078877  1
  F  F25  1  0.84800499  0.34031327  0.70078877  1
  F  F26  1  0.65968673  0.50769172  0.70078877  1
  F  F27  1  0.84800499  0.50769172  0.29921123  1
  F  F28  1  0.65968673  0.15199501  0.29921123  1
  F  F29  1  0.49230828  0.34031327  0.29921123  1
  F  F30  1  0.07534038  0.92465962  0.00000000  1
  F  F31  1  0.07534038  0.15068077  -0.00000000  1
  F  F32  1  0.84931923  0.92465962  0.00000000  1
  F  F33  1  0.80038217  0.15807832  0.04063417  1
  F  F34  1  0.84192168  0.64230385  0.04063417  1
  F  F35  1  0.35769615  0.19961783  0.04063417  1
  F  F36  1  0.84192168  0.19961783  0.95936583  1
  F  F37  1  0.35769615  0.15807832  0.95936583  1
  F  F38  1  0.80038217  0.64230385  0.95936583  1
  F  F39  1  0.17516501  0.82483499  0.50000000  1
  F  F40  1  0.17516501  0.35033002  0.50000000  1
  F  F41  1  0.64966998  0.82483499  0.50000000  1
  Li  Li42  1  0.26223493  0.02604690  0.95553548  1
  Li  Li43  1  -0.02604690  0.23618803  0.95553548  1
  Li  Li44  1  -0.23618803  -0.26223493  0.95553548  1
  Li  Li45  1  -0.02604690  -0.26223493  -0.95553548  1
  Li  Li46  1  -0.23618803  0.02604690  -0.95553548  1
  Li  Li47  1  0.26223493  0.23618803  -0.95553548  1
  Li  Li48  1  0.88271423  0.85834166  0.24687993  1
  Li  Li49  1  0.14165834  0.02437257  0.24687993  1
  Li  Li50  1  0.97562743  0.11728577  0.24687993  1
  Li  Li51  1  0.14165834  0.11728577  0.75312007  1
  Li  Li52  1  0.97562743  0.85834166  0.75312007  1
  Li  Li53  1  0.88271423  0.02437257  0.75312007  1
  Li  Li54  1  0.32672545  0.38403997  0.61669052  1
  Li  Li55  1  0.61596003  0.94268548  0.61669052  1
  Li  Li56  1  0.05731452  0.67327455  0.61669052  1
  Li  Li57  1  0.61596003  0.67327455  0.38330948  1
  Li  Li58  1  0.05731452  0.38403997  0.38330948  1
  Li  Li59  1  0.32672545  0.94268548  0.38330948  1
  Li  Li60  1  0.54232024  0.37092450  0.86894595  1
  Li  Li61  1  0.62907550  0.17139573  0.86894595  1
  Li  Li62  1  0.82860427  0.45767976  0.86894595  1
  Li  Li63  1  0.62907550  0.45767976  0.13105405  1
  Li  Li64  1  0.82860427  0.37092450  0.13105405  1
  Li  Li65  1  0.54232024  0.17139573  0.13105405  1
  Li  Li66  1  0.44482657  0.06948942  0.85680270  1
  Li  Li67  1  0.93051058  0.37533715  0.85680270  1
  Li  Li68  1  0.62466285  0.55517343  0.85680270  1
  Li  Li69  1  0.93051058  0.55517343  0.14319730  1
  Li  Li70  1  0.62466285  0.06948942  0.14319730  1
  Li  Li71  1  0.44482657  0.37533715  0.14319730  1
  Li  Li72  1  0.00000000  0.00000000  0.00000000  1
  Li  Li73  1  0.59070940  0.05890397  0.80848873  1
  Li  Li74  1  0.94109603  0.53180544  0.80848873  1
  Li  Li75  1  0.46819456  0.40929060  0.80848873  1
  Li  Li76  1  0.94109603  0.40929060  0.19151127  1
  Li  Li77  1  0.46819456  0.05890397  0.19151127  1
  Li  Li78  1  0.59070940  0.53180544  0.19151127  1
  Li  Li79  1  0.66666667  0.33333333  -0.00000000  1
  Li  Li80  1  0.76034799  0.23965201  -0.00000000  1
  Li  Li81  1  0.76034799  0.52069597  -0.00000000  1
  Li  Li82  1  0.47930403  0.23965201  -0.00000000  1
  Li  Li83  1  0.00000000  0.00000000  0.50000000  1
