# generated using pymatgen
data_LiF
_symmetry_space_group_name_H-M   'P 1'
_cell_length_a   8.47087741
_cell_length_b   6.59294597
_cell_length_c   5.84943601
_cell_angle_alpha   90.00000000
_cell_angle_beta   90.00000000
_cell_angle_gamma   90.00000000
_symmetry_Int_Tables_number   1
_chemical_formula_structural   LiF
_chemical_formula_sum   'Li10 F10'
_cell_volume   326.67951946
_cell_formula_units_Z   10
loop_
 _symmetry_equiv_pos_site_id
 _symmetry_equiv_pos_as_xyz
  1  'x, y, z'
loop_
 _atom_site_type_symbol
 _atom_site_label
 _atom_site_symmetry_multiplicity
 _atom_site_fract_x
 _atom_site_fract_y
 _atom_site_fract_z
 _atom_site_occupancy
  F  F0  1  0.16777317  0.97088904  0.00000000  1
  F  F1  1  0.83222683  0.02911096  0.00000000  1
  F  F2  1  0.33222683  0.47088904  0.50000000  1
  F  F3  1  0.66777317  0.52911096  0.50000000  1
  F  F4  1  0.00000000  0.00000000  0.08344738  1
  F  F5  1  0.50000000  0.50000000  0.41655262  1
  F  F6  1  0.00000000  0.00000000  0.91655262  1
  F  F7  1  0.50000000  0.50000000  0.58344738  1
  F  F8  1  0.00000000  0.50000000  0.50000000  1
  F  F9  1  0.50000000  -0.00000000  0.00000000  1
  Li  Li10  1  0.00000000  0.00000000  0.50000000  1
  Li  Li11  1  0.50000000  0.50000000  -0.00000000  1
  Li  Li12  1  0.40971565  0.05928786  0.18405451  1
  Li  Li13  1  -0.40971565  -0.05928786  0.18405451  1
  Li  Li14  1  0.09028435  0.55928786  0.31594549  1
  Li  Li15  1  0.90971565  0.44071214  0.31594549  1
  Li  Li16  1  -0.40971565  -0.05928786  -0.18405451  1
  Li  Li17  1  0.40971565  0.05928786  -0.18405451  1
  Li  Li18  1  0.90971565  0.44071214  0.68405451  1
  Li  Li19  1  0.09028435  0.55928786  0.68405451  1
