# generated using pymatgen
data_LiF
_symmetry_space_group_name_H-M   'P 1'
_cell_length_a   8.30590684
_cell_length_b   5.75011582
_cell_length_c   9.39869315
_cell_angle_alpha   90.00000000
_cell_angle_beta   90.00000000
_cell_angle_gamma   90.00000000
_symmetry_Int_Tables_number   1
_chemical_formula_structural   LiF
_chemical_formula_sum   'Li18 F18'
_cell_volume   448.88089211
_cell_formula_units_Z   18
loop_
 _symmetry_equiv_pos_site_id
 _symmetry_equiv_pos_as_xyz
  1  'x, y, z'
loop_
 _atom_site_type_symbol
 _atom_site_label
 _atom_site_symmetry_multiplicity
 _atom_site_fract_x
 _atom_site_fract_y
 _atom_site_fract_z
 _atom_site_occupancy
  F  F0  1  0.61525680  0.98789257  -0.00000000  1
  F  F1  1  0.38474320  0.01210743  0.00000000  1
  F  F2  1  0.88474320  0.48789257  0.50000000  1
  F  F3  1  0.11525680  0.51210743  0.50000000  1
  F  F4  1  0.21567384  0.86639066  0.95370145  1
  F  F5  1  -0.21567384  -0.86639066  0.95370145  1
  F  F6  1  0.28432616  1.36639066  -0.45370145  1
  F  F7  1  0.71567384  -0.36639066  -0.45370145  1
  F  F8  1  -0.21567384  -0.86639066  -0.95370145  1
  F  F9  1  0.21567384  0.86639066  -0.95370145  1
  F  F10  1  0.71567384  -0.36639066  1.45370145  1
  F  F11  1  0.28432616  1.36639066  1.45370145  1
  F  F12  1  0.00000000  0.00000000  0.36772102  1
  F  F13  1  0.50000000  0.50000000  0.13227898  1
  F  F14  1  0.00000000  0.00000000  0.63227898  1
  F  F15  1  0.50000000  0.50000000  0.86772102  1
  F  F16  1  0.00000000  0.00000000  0.50000000  1
  F  F17  1  0.50000000  0.50000000  0.00000000  1
  Li  Li18  1  0.38754335  0.75745190  0.80731465  1
  Li  Li19  1  0.61245665  0.24254810  0.80731465  1
  Li  Li20  1  0.11245665  0.25745190  0.69268535  1
  Li  Li21  1  0.88754335  0.74254810  0.69268535  1
  Li  Li22  1  0.61245665  0.24254810  0.19268535  1
  Li  Li23  1  0.38754335  0.75745190  0.19268535  1
  Li  Li24  1  0.88754335  0.74254810  0.30731465  1
  Li  Li25  1  0.11245665  0.25745190  0.30731465  1
  Li  Li26  1  0.00000000  0.00000000  0.00000000  1
  Li  Li27  1  0.50000000  0.50000000  0.50000000  1
  Li  Li28  1  0.80380849  0.31568195  0.00000000  1
  Li  Li29  1  0.19619151  0.68431805  0.00000000  1
  Li  Li30  1  0.69619151  0.81568195  0.50000000  1
  Li  Li31  1  0.30380849  0.18431805  0.50000000  1
  Li  Li32  1  0.00000000  0.50000000  0.50000000  1
  Li  Li33  1  0.50000000  -0.00000000  -0.00000000  1
  Li  Li34  1  0.00000000  0.50000000  0.00000000  1
  Li  Li35  1  0.50000000  -0.00000000  0.50000000  1
