# generated using pymatgen
data_LiF
_symmetry_space_group_name_H-M   'P 1'
_cell_length_a   4.78228698
_cell_length_b   12.65764489
_cell_length_c   8.18356203
_cell_angle_alpha   90.00000000
_cell_angle_beta   90.00000000
_cell_angle_gamma   90.00000000
_symmetry_Int_Tables_number   1
_chemical_formula_structural   LiF
_chemical_formula_sum   'Li24 F24'
_cell_volume   495.37138973
_cell_formula_units_Z   24
loop_
 _symmetry_equiv_pos_site_id
 _symmetry_equiv_pos_as_xyz
  1  'x, y, z'
loop_
 _atom_site_type_symbol
 _atom_site_label
 _atom_site_symmetry_multiplicity
 _atom_site_fract_x
 _atom_site_fract_y
 _atom_site_fract_z
 _atom_site_occupancy
  F  F0  1  0.00000000  0.00000000  0.00000000  1
  F  F1  1  0.50000000  0.00000000  0.50000000  1
  F  F2  1  0.00000000  0.50000000  -0.00000000  1
  F  F3  1  0.50000000  0.50000000  0.50000000  1
  F  F4  1  0.27727945  0.34202329  0.26484271  1
  F  F5  1  0.22272055  0.65797671  0.76484271  1
  F  F6  1  0.72272055  0.84202329  0.73515729  1
  F  F7  1  0.77727945  0.15797671  0.23515729  1
  F  F8  1  0.72272055  0.65797671  0.73515729  1
  F  F9  1  0.77727945  0.34202329  0.23515729  1
  F  F10  1  0.27727945  0.15797671  0.26484271  1
  F  F11  1  0.22272055  0.84202329  0.76484271  1
  F  F12  1  0.44948458  0.32677961  0.79635446  1
  F  F13  1  0.05051542  0.67322039  0.29635446  1
  F  F14  1  0.55051542  0.82677961  0.20364554  1
  F  F15  1  0.94948458  0.17322039  0.70364554  1
  F  F16  1  0.55051542  0.67322039  0.20364554  1
  F  F17  1  0.94948458  0.32677961  0.70364554  1
  F  F18  1  0.44948458  0.17322039  0.79635446  1
  F  F19  1  0.05051542  0.82677961  0.29635446  1
  F  F20  1  0.31220609  0.25000000  0.29889453  1
  F  F21  1  0.18779391  0.75000000  0.79889453  1
  F  F22  1  0.68779391  0.75000000  0.70110547  1
  F  F23  1  0.81220609  0.25000000  0.20110547  1
  Li  Li24  1  0.19551822  0.25000000  0.71753981  1
  Li  Li25  1  0.30448178  0.75000000  0.21753981  1
  Li  Li26  1  0.80448178  0.75000000  0.28246019  1
  Li  Li27  1  0.69551822  0.25000000  0.78246019  1
  Li  Li28  1  0.30381236  0.97699891  0.73933033  1
  Li  Li29  1  0.19618764  -0.97699891  1.23933033  1
  Li  Li30  1  -0.30381236  1.47699891  -0.73933033  1
  Li  Li31  1  0.80381236  -0.47699891  -0.23933033  1
  Li  Li32  1  -0.30381236  -0.97699891  -0.73933033  1
  Li  Li33  1  0.80381236  0.97699891  -0.23933033  1
  Li  Li34  1  0.30381236  -0.47699891  0.73933033  1
  Li  Li35  1  0.19618764  1.47699891  1.23933033  1
  Li  Li36  1  0.69068610  0.25000000  0.98015090  1
  Li  Li37  1  0.80931390  0.75000000  0.48015090  1
  Li  Li38  1  0.30931390  0.75000000  0.01984910  1
  Li  Li39  1  0.19068610  0.25000000  0.51984910  1
  Li  Li40  1  0.00000000  0.00000000  0.50000000  1
  Li  Li41  1  0.50000000  0.00000000  0.00000000  1
  Li  Li42  1  0.00000000  0.50000000  0.50000000  1
  Li  Li43  1  0.50000000  0.50000000  -0.00000000  1
  Li  Li44  1  0.47065892  0.25000000  0.41456876  1
  Li  Li45  1  0.02934108  0.75000000  0.91456876  1
  Li  Li46  1  0.52934108  0.75000000  0.58543124  1
  Li  Li47  1  0.97065892  0.25000000  0.08543124  1
