# generated using pymatgen
data_LiF
_symmetry_space_group_name_H-M   'P 1'
_cell_length_a   9.82969564
_cell_length_b   6.34720776
_cell_length_c   6.68350727
_cell_angle_alpha   90.00000000
_cell_angle_beta   90.00000000
_cell_angle_gamma   90.00000000
_symmetry_Int_Tables_number   1
_chemical_formula_structural   LiF
_chemical_formula_sum   'Li24 F24'
_cell_volume   416.99150673
_cell_formula_units_Z   24
loop_
 _symmetry_equiv_pos_site_id
 _symmetry_equiv_pos_as_xyz
  1  'x, y, z'
loop_
 _atom_site_type_symbol
 _atom_site_label
 _atom_site_symmetry_multiplicity
 _atom_site_fract_x
 _atom_site_fract_y
 _atom_site_fract_z
 _atom_site_occupancy
  F  F0  1  0.41806271  0.25000000  0.87309474  1
  F  F1  1  0.08193729  0.75000000  0.37309474  1
  F  F2  1  0.58193729  0.75000000  0.12690526  1
  F  F3  1  0.91806271  0.25000000  0.62690526  1
  F  F4  1  0.10721926  0.30197943  0.20648736  1
  F  F5  1  0.39278074  0.69802057  0.70648736  1
  F  F6  1  0.89278074  0.80197943  0.79351264  1
  F  F7  1  0.60721926  0.19802057  0.29351264  1
  F  F8  1  0.89278074  0.69802057  0.79351264  1
  F  F9  1  0.60721926  0.30197943  0.29351264  1
  F  F10  1  0.10721926  0.19802057  0.20648736  1
  F  F11  1  0.39278074  0.80197943  0.70648736  1
  F  F12  1  0.84300076  0.64767177  0.07356563  1
  F  F13  1  0.65699924  0.35232823  0.57356563  1
  F  F14  1  0.15699924  0.14767177  0.92643437  1
  F  F15  1  0.34300076  0.85232823  0.42643437  1
  F  F16  1  0.15699924  0.35232823  0.92643437  1
  F  F17  1  0.34300076  0.64767177  0.42643437  1
  F  F18  1  0.84300076  0.85232823  0.07356563  1
  F  F19  1  0.65699924  0.14767177  0.57356563  1
  F  F20  1  0.71116034  0.25000000  0.02836784  1
  F  F21  1  0.78883966  0.75000000  0.52836784  1
  F  F22  1  0.28883966  0.75000000  0.97163216  1
  F  F23  1  0.21116034  0.25000000  0.47163216  1
  Li  Li24  1  0.00000000  0.00000000  0.00000000  1
  Li  Li25  1  0.50000000  0.00000000  0.50000000  1
  Li  Li26  1  0.00000000  0.50000000  0.00000000  1
  Li  Li27  1  0.50000000  0.50000000  0.50000000  1
  Li  Li28  1  0.58222383  0.00403777  0.76033865  1
  Li  Li29  1  -0.08222383  -0.00403777  1.26033865  1
  Li  Li30  1  -0.58222383  0.50403777  -0.76033865  1
  Li  Li31  1  1.08222383  0.49596223  -0.26033865  1
  Li  Li32  1  -0.58222383  -0.00403777  -0.76033865  1
  Li  Li33  1  1.08222383  0.00403777  -0.26033865  1
  Li  Li34  1  0.58222383  0.49596223  0.76033865  1
  Li  Li35  1  -0.08222383  0.50403777  1.26033865  1
  Li  Li36  1  0.83910677  0.25000000  0.92907823  1
  Li  Li37  1  0.66089323  0.75000000  0.42907823  1
  Li  Li38  1  0.16089323  0.75000000  0.07092177  1
  Li  Li39  1  0.33910677  0.25000000  0.57092177  1
  Li  Li40  1  0.73579222  0.55208604  0.36948591  1
  Li  Li41  1  0.76420778  0.44791396  0.86948591  1
  Li  Li42  1  0.26420778  0.05208604  0.63051409  1
  Li  Li43  1  0.23579222  0.94791396  0.13051409  1
  Li  Li44  1  0.26420778  0.44791396  0.63051409  1
  Li  Li45  1  0.23579222  0.55208604  0.13051409  1
  Li  Li46  1  0.73579222  0.94791396  0.36948591  1
  Li  Li47  1  0.76420778  0.05208604  0.86948591  1
