# generated using pymatgen
data_LiF
_symmetry_space_group_name_H-M   'P 1'
_cell_length_a   6.24870839
_cell_length_b   8.18066749
_cell_length_c   10.01155759
_cell_angle_alpha   90.00000000
_cell_angle_beta   90.00000000
_cell_angle_gamma   90.00000000
_symmetry_Int_Tables_number   1
_chemical_formula_structural   LiF
_chemical_formula_sum   'Li24 F24'
_cell_volume   511.77686312
_cell_formula_units_Z   24
loop_
 _symmetry_equiv_pos_site_id
 _symmetry_equiv_pos_as_xyz
  1  'x, y, z'
loop_
 _atom_site_type_symbol
 _atom_site_label
 _atom_site_symmetry_multiplicity
 _atom_site_fract_x
 _atom_site_fract_y
 _atom_site_fract_z
 _atom_site_occupancy
  F  F0  1  0.21179512  0.70797205  0.72227913  1
  F  F1  1  0.28820488  0.29202795  0.22227913  1
  F  F2  1  0.78820488  0.20797205  0.27772087  1
  F  F3  1  0.71179512  0.79202795  0.77772087  1
  F  F4  1  0.78820488  0.29202795  0.27772087  1
  F  F5  1  0.71179512  0.70797205  0.77772087  1
  F  F6  1  0.21179512  0.79202795  0.72227913  1
  F  F7  1  0.28820488  0.20797205  0.22227913  1
  F  F8  1  0.31583488  0.54137756  0.32304567  1
  F  F9  1  0.18416512  0.45862244  0.82304567  1
  F  F10  1  0.68416512  0.04137756  0.67695433  1
  F  F11  1  0.81583488  0.95862244  0.17695433  1
  F  F12  1  0.68416512  0.45862244  0.67695433  1
  F  F13  1  0.81583488  0.54137756  0.17695433  1
  F  F14  1  0.31583488  0.95862244  0.32304567  1
  F  F15  1  0.18416512  0.04137756  0.82304567  1
  F  F16  1  0.18295460  0.55866466  0.03167263  1
  F  F17  1  0.31704540  0.44133534  0.53167263  1
  F  F18  1  0.81704540  0.05866466  0.96832737  1
  F  F19  1  0.68295460  0.94133534  0.46832737  1
  F  F20  1  0.81704540  0.44133534  0.96832737  1
  F  F21  1  0.68295460  0.55866466  0.46832737  1
  F  F22  1  0.18295460  0.94133534  0.03167263  1
  F  F23  1  0.31704540  0.05866466  0.53167263  1
  Li  Li24  1  0.03286997  0.25000000  0.74191136  1
  Li  Li25  1  0.46713003  0.75000000  0.24191136  1
  Li  Li26  1  0.96713003  0.75000000  0.25808864  1
  Li  Li27  1  0.53286997  0.25000000  0.75808864  1
  Li  Li28  1  0.00000000  0.00000000  0.50000000  1
  Li  Li29  1  0.50000000  0.00000000  0.00000000  1
  Li  Li30  1  0.00000000  0.50000000  0.50000000  1
  Li  Li31  1  0.50000000  0.50000000  0.00000000  1
  Li  Li32  1  0.00000000  0.00000000  0.00000000  1
  Li  Li33  1  0.50000000  0.00000000  0.50000000  1
  Li  Li34  1  0.00000000  0.50000000  0.00000000  1
  Li  Li35  1  0.50000000  0.50000000  0.50000000  1
  Li  Li36  1  0.20244113  0.61385286  0.28873035  1
  Li  Li37  1  0.29755887  -0.61385286  0.78873035  1
  Li  Li38  1  -0.20244113  1.11385286  -0.28873035  1
  Li  Li39  1  0.70244113  -0.11385286  0.21126965  1
  Li  Li40  1  -0.20244113  -0.61385286  -0.28873035  1
  Li  Li41  1  0.70244113  0.61385286  0.21126965  1
  Li  Li42  1  0.20244113  -0.11385286  0.28873035  1
  Li  Li43  1  0.29755887  1.11385286  0.78873035  1
  Li  Li44  1  0.69479139  0.25000000  0.93318522  1
  Li  Li45  1  0.80520861  0.75000000  0.43318522  1
  Li  Li46  1  0.30520861  0.75000000  0.06681478  1
  Li  Li47  1  0.19479139  0.25000000  0.56681478  1
