# generated using pymatgen
data_LiF
_symmetry_space_group_name_H-M   'P 1'
_cell_length_a   16.65961309
_cell_length_b   16.65961309
_cell_length_c   3.68974765
_cell_angle_alpha   90.00000000
_cell_angle_beta   90.00000000
_cell_angle_gamma   90.00000000
_symmetry_Int_Tables_number   1
_chemical_formula_structural   LiF
_chemical_formula_sum   'Li35 F35'
_cell_volume   1024.06255638
_cell_formula_units_Z   35
loop_
 _symmetry_equiv_pos_site_id
 _symmetry_equiv_pos_as_xyz
  1  'x, y, z'
loop_
 _atom_site_type_symbol
 _atom_site_label
 _atom_site_symmetry_multiplicity
 _atom_site_fract_x
 _atom_site_fract_y
 _atom_site_fract_z
 _atom_site_occupancy
  F  F0  1  0.87826816  0.50000000  0.10975173  1
  F  F1  1  0.12173184  0.50000000  0.10975173  1
  F  F2  1  0.50000000  0.87826816  0.10975173  1
  F  F3  1  0.50000000  0.12173184  0.10975173  1
  F  F4  1  0.12173184  0.50000000  0.89024827  1
  F  F5  1  0.87826816  0.50000000  0.89024827  1
  F  F6  1  0.50000000  0.87826816  0.89024827  1
  F  F7  1  0.50000000  0.12173184  0.89024827  1
  F  F8  1  0.13676678  0.05732828  0.50000000  1
  F  F9  1  0.86323322  0.94267172  0.50000000  1
  F  F10  1  0.94267172  0.13676678  0.50000000  1
  F  F11  1  0.05732828  0.86323322  0.50000000  1
  F  F12  1  0.86323322  0.05732828  0.50000000  1
  F  F13  1  0.13676678  0.94267172  0.50000000  1
  F  F14  1  0.05732828  0.13676678  0.50000000  1
  F  F15  1  0.94267172  0.86323322  0.50000000  1
  F  F16  1  0.14857739  0.37529379  0.19757329  1
  F  F17  1  -0.14857739  -0.37529379  0.19757329  1
  F  F18  1  -0.37529379  0.14857739  0.19757329  1
  F  F19  1  0.37529379  -0.14857739  0.19757329  1
  F  F20  1  -0.14857739  0.37529379  -0.19757329  1
  F  F21  1  0.14857739  -0.37529379  -0.19757329  1
  F  F22  1  0.37529379  0.14857739  -0.19757329  1
  F  F23  1  -0.37529379  -0.14857739  -0.19757329  1
  F  F24  1  -0.14857739  -0.37529379  -0.19757329  1
  F  F25  1  0.14857739  0.37529379  -0.19757329  1
  F  F26  1  0.37529379  -0.14857739  -0.19757329  1
  F  F27  1  -0.37529379  0.14857739  -0.19757329  1
  F  F28  1  0.14857739  -0.37529379  0.19757329  1
  F  F29  1  -0.14857739  0.37529379  0.19757329  1
  F  F30  1  -0.37529379  -0.14857739  0.19757329  1
  F  F31  1  0.37529379  0.14857739  0.19757329  1
  F  F32  1  0.50000000  0.50000000  0.32386128  1
  F  F33  1  0.50000000  0.50000000  0.67613872  1
  F  F34  1  0.00000000  0.00000000  0.50000000  1
  Li  Li35  1  0.66115714  0.00000000  0.22047186  1
  Li  Li36  1  0.33884286  0.00000000  0.22047186  1
  Li  Li37  1  0.00000000  0.66115714  0.22047186  1
  Li  Li38  1  0.00000000  0.33884286  0.22047186  1
  Li  Li39  1  0.33884286  0.00000000  0.77952814  1
  Li  Li40  1  0.66115714  0.00000000  0.77952814  1
  Li  Li41  1  0.00000000  0.66115714  0.77952814  1
  Li  Li42  1  0.00000000  0.33884286  0.77952814  1
  Li  Li43  1  0.00000000  0.50000000  0.00000000  1
  Li  Li44  1  0.50000000  0.00000000  0.00000000  1
  Li  Li45  1  0.16389507  0.92487327  0.00000000  1
  Li  Li46  1  0.83610493  0.07512673  0.00000000  1
  Li  Li47  1  0.07512673  0.16389507  0.00000000  1
  Li  Li48  1  0.92487327  0.83610493  -0.00000000  1
  Li  Li49  1  0.83610493  0.92487327  0.00000000  1
  Li  Li50  1  0.16389507  0.07512673  0.00000000  1
  Li  Li51  1  0.92487327  0.16389507  0.00000000  1
  Li  Li52  1  0.07512673  0.83610493  0.00000000  1
  Li  Li53  1  0.27266000  0.39412273  -0.00000000  1
  Li  Li54  1  0.72734000  0.60587727  0.00000000  1
  Li  Li55  1  0.60587727  0.27266000  -0.00000000  1
  Li  Li56  1  0.39412273  0.72734000  -0.00000000  1
  Li  Li57  1  0.72734000  0.39412273  -0.00000000  1
  Li  Li58  1  0.27266000  0.60587727  0.00000000  1
  Li  Li59  1  0.39412273  0.27266000  -0.00000000  1
  Li  Li60  1  0.60587727  0.72734000  0.00000000  1
  Li  Li61  1  0.60175971  0.50000000  -0.00000000  1
  Li  Li62  1  0.39824029  0.50000000  0.00000000  1
  Li  Li63  1  0.50000000  0.60175971  -0.00000000  1
  Li  Li64  1  0.50000000  0.39824029  0.00000000  1
  Li  Li65  1  0.00000000  0.00000000  0.23980072  1
  Li  Li66  1  0.00000000  0.00000000  0.76019928  1
  Li  Li67  1  0.00000000  0.50000000  0.50000000  1
  Li  Li68  1  0.50000000  0.00000000  0.50000000  1
  Li  Li69  1  0.50000000  0.50000000  0.00000000  1
