# generated using pymatgen
data_LiYF
_symmetry_space_group_name_H-M   'P 1'
_cell_length_a   3.14351330
_cell_length_b   3.05409738
_cell_length_c   5.77309916
_cell_angle_alpha   107.15601510
_cell_angle_beta   105.62389462
_cell_angle_gamma   110.20557507
_symmetry_Int_Tables_number   1
_chemical_formula_structural   LiYF
_chemical_formula_sum   'Li1 Y1 F1'
_cell_volume   45.24150418
_cell_formula_units_Z   1
loop_
 _symmetry_equiv_pos_site_id
 _symmetry_equiv_pos_as_xyz
  1  'x, y, z'
loop_
 _atom_site_type_symbol
 _atom_site_label
 _atom_site_symmetry_multiplicity
 _atom_site_fract_x
 _atom_site_fract_y
 _atom_site_fract_z
 _atom_site_occupancy
  F  F0  1  0.00000000  0.00000000  0.00000000  1
  Li  Li1  1  0.50000000  0.50000000  0.50000000  1
  Y  Y2  1  0.25000000  0.25000000  0.25000000  1
