# generated using pymatgen
data_LiF
_symmetry_space_group_name_H-M   'P 1'
_cell_length_a   12.15046973
_cell_length_b   12.15046973
_cell_length_c   10.56046436
_cell_angle_alpha   90.00000000
_cell_angle_beta   90.00000000
_cell_angle_gamma   90.00000000
_symmetry_Int_Tables_number   1
_chemical_formula_structural   LiF
_chemical_formula_sum   'Li64 F64'
_cell_volume   1559.08269566
_cell_formula_units_Z   64
loop_
 _symmetry_equiv_pos_site_id
 _symmetry_equiv_pos_as_xyz
  1  'x, y, z'
loop_
 _atom_site_type_symbol
 _atom_site_label
 _atom_site_symmetry_multiplicity
 _atom_site_fract_x
 _atom_site_fract_y
 _atom_site_fract_z
 _atom_site_occupancy
  F  F0  1  0.00000000  0.25000000  0.12500000  1
  F  F1  1  0.00000000  0.75000000  0.37500000  1
  F  F2  1  0.00000000  0.75000000  0.87500000  1
  F  F3  1  0.00000000  0.25000000  0.62500000  1
  F  F4  1  0.50000000  0.75000000  0.62500000  1
  F  F5  1  0.50000000  0.25000000  0.87500000  1
  F  F6  1  0.50000000  0.25000000  0.37500000  1
  F  F7  1  0.50000000  0.75000000  0.12500000  1
  F  F8  1  0.04167929  0.29167929  0.12500000  1
  F  F9  1  0.45832071  0.70832071  0.62500000  1
  F  F10  1  0.95832071  0.79167929  0.37500000  1
  F  F11  1  0.54167929  0.20832071  0.87500000  1
  F  F12  1  0.95832071  0.70832071  0.87500000  1
  F  F13  1  0.54167929  0.29167929  0.37500000  1
  F  F14  1  0.04167929  0.20832071  0.62500000  1
  F  F15  1  0.45832071  0.79167929  0.12500000  1
  F  F16  1  0.54167929  0.79167929  0.62500000  1
  F  F17  1  0.95832071  0.20832071  0.12500000  1
  F  F18  1  0.45832071  0.29167929  0.87500000  1
  F  F19  1  0.04167929  0.70832071  0.37500000  1
  F  F20  1  0.45832071  0.20832071  0.37500000  1
  F  F21  1  0.04167929  0.79167929  0.87500000  1
  F  F22  1  0.54167929  0.70832071  0.12500000  1
  F  F23  1  0.95832071  0.29167929  0.62500000  1
  F  F24  1  0.30360710  0.85357130  0.07306779  1
  F  F25  1  0.19639290  -0.85357130  0.57306779  1
  F  F26  1  -0.60357130  1.05360710  0.32306779  1
  F  F27  1  1.10357130  -0.05360710  0.82306779  1
  F  F28  1  0.19639290  0.85357130  -0.07306779  1
  F  F29  1  0.30360710  -0.85357130  0.42693221  1
  F  F30  1  1.10357130  1.05360710  0.67693221  1
  F  F31  1  -0.60357130  -0.05360710  0.17693221  1
  F  F32  1  -0.30360710  -0.85357130  -0.07306779  1
  F  F33  1  0.80360710  0.85357130  0.42693221  1
  F  F34  1  1.60357130  -0.05360710  0.67693221  1
  F  F35  1  -0.10357130  1.05360710  0.17693221  1
  F  F36  1  0.80360710  -0.85357130  0.07306779  1
  F  F37  1  -0.30360710  0.85357130  0.57306779  1
  F  F38  1  -0.10357130  -0.05360710  0.32306779  1
  F  F39  1  1.60357130  1.05360710  0.82306779  1
  F  F40  1  0.80360710  1.35357130  0.57306779  1
  F  F41  1  0.69639290  -0.35357130  1.07306779  1
  F  F42  1  -0.10357130  1.55360710  0.82306779  1
  F  F43  1  1.60357130  0.44639290  1.32306779  1
  F  F44  1  0.69639290  1.35357130  0.42693221  1
  F  F45  1  0.80360710  -0.35357130  0.92693221  1
  F  F46  1  1.60357130  1.55360710  1.17693221  1
  F  F47  1  -0.10357130  0.44639290  0.67693221  1
  F  F48  1  0.19639290  -0.35357130  0.42693221  1
  F  F49  1  1.30360710  1.35357130  0.92693221  1
  F  F50  1  2.10357130  0.44639290  1.17693221  1
  F  F51  1  0.39642870  1.55360710  0.67693221  1
  F  F52  1  1.30360710  -0.35357130  0.57306779  1
  F  F53  1  0.19639290  1.35357130  1.07306779  1
  F  F54  1  0.39642870  0.44639290  0.82306779  1
  F  F55  1  2.10357130  1.55360710  1.32306779  1
  F  F56  1  0.00000000  0.25000000  0.37500000  1
  F  F57  1  0.00000000  0.75000000  0.62500000  1
  F  F58  1  0.50000000  0.25000000  0.62500000  1
  F  F59  1  0.50000000  0.75000000  0.37500000  1
  F  F60  1  0.50000000  0.75000000  0.87500000  1
  F  F61  1  0.50000000  0.25000000  0.12500000  1
  F  F62  1  0.00000000  0.75000000  0.12500000  1
  F  F63  1  0.00000000  0.25000000  0.87500000  1
  Li  Li64  1  0.18520325  0.43520325  0.12500000  1
  Li  Li65  1  0.31479675  0.56479675  0.62500000  1
  Li  Li66  1  0.81479675  0.93520325  0.37500000  1
  Li  Li67  1  0.68520325  0.06479675  0.87500000  1
  Li  Li68  1  0.81479675  0.56479675  0.87500000  1
  Li  Li69  1  0.68520325  0.43520325  0.37500000  1
  Li  Li70  1  0.18520325  0.06479675  0.62500000  1
  Li  Li71  1  0.31479675  0.93520325  0.12500000  1
  Li  Li72  1  0.68520325  0.93520325  0.62500000  1
  Li  Li73  1  0.81479675  0.06479675  0.12500000  1
  Li  Li74  1  0.31479675  0.43520325  0.87500000  1
  Li  Li75  1  0.18520325  0.56479675  0.37500000  1
  Li  Li76  1  0.31479675  0.06479675  0.37500000  1
  Li  Li77  1  0.18520325  0.93520325  0.87500000  1
  Li  Li78  1  0.68520325  0.56479675  0.12500000  1
  Li  Li79  1  0.81479675  0.43520325  0.62500000  1
  Li  Li80  1  0.00000000  0.00000000  0.00000000  1
  Li  Li81  1  0.50000000  0.00000000  0.50000000  1
  Li  Li82  1  0.25000000  0.75000000  0.25000000  1
  Li  Li83  1  0.25000000  0.25000000  0.75000000  1
  Li  Li84  1  0.50000000  0.00000000  0.00000000  1
  Li  Li85  1  0.00000000  0.00000000  0.50000000  1
  Li  Li86  1  0.25000000  0.75000000  0.75000000  1
  Li  Li87  1  0.25000000  0.25000000  0.25000000  1
  Li  Li88  1  0.50000000  0.50000000  0.50000000  1
  Li  Li89  1  0.00000000  0.50000000  0.00000000  1
  Li  Li90  1  0.75000000  0.25000000  0.75000000  1
  Li  Li91  1  0.75000000  0.75000000  0.25000000  1
  Li  Li92  1  0.00000000  0.50000000  0.50000000  1
  Li  Li93  1  0.50000000  0.50000000  0.00000000  1
  Li  Li94  1  0.75000000  0.25000000  0.25000000  1
  Li  Li95  1  0.75000000  0.75000000  0.75000000  1
  Li  Li96  1  0.41809209  0.86997211  0.35564385  1
  Li  Li97  1  0.08190791  0.13002789  0.85564385  1
  Li  Li98  1  0.38002789  0.16809209  0.60564385  1
  Li  Li99  1  0.11997211  0.83190791  0.10564385  1
  Li  Li100  1  0.08190791  0.86997211  0.64435615  1
  Li  Li101  1  0.41809209  0.13002789  0.14435615  1
  Li  Li102  1  0.11997211  0.16809209  0.39435615  1
  Li  Li103  1  0.38002789  0.83190791  0.89435615  1
  Li  Li104  1  0.58190791  0.13002789  0.64435615  1
  Li  Li105  1  0.91809209  0.86997211  0.14435615  1
  Li  Li106  1  0.61997211  0.83190791  0.39435615  1
  Li  Li107  1  0.88002789  0.16809209  0.89435615  1
  Li  Li108  1  0.91809209  0.13002789  0.35564385  1
  Li  Li109  1  0.58190791  0.86997211  0.85564385  1
  Li  Li110  1  0.88002789  0.83190791  0.60564385  1
  Li  Li111  1  0.61997211  0.16809209  0.10564385  1
  Li  Li112  1  0.91809209  0.36997211  0.85564385  1
  Li  Li113  1  0.58190791  0.63002789  0.35564385  1
  Li  Li114  1  0.88002789  0.66809209  0.10564385  1
  Li  Li115  1  0.61997211  0.33190791  0.60564385  1
  Li  Li116  1  0.58190791  0.36997211  0.14435615  1
  Li  Li117  1  0.91809209  0.63002789  0.64435615  1
  Li  Li118  1  0.61997211  0.66809209  0.89435615  1
  Li  Li119  1  0.88002789  0.33190791  0.39435615  1
  Li  Li120  1  0.08190791  0.63002789  0.14435615  1
  Li  Li121  1  0.41809209  0.36997211  0.64435615  1
  Li  Li122  1  0.11997211  0.33190791  0.89435615  1
  Li  Li123  1  0.38002789  0.66809209  0.39435615  1
  Li  Li124  1  0.41809209  0.63002789  0.85564385  1
  Li  Li125  1  0.08190791  0.36997211  0.35564385  1
  Li  Li126  1  0.38002789  0.33190791  0.10564385  1
  Li  Li127  1  0.11997211  0.66809209  0.60564385  1
