# generated using pymatgen
data_LiF
_symmetry_space_group_name_H-M   'P 1'
_cell_length_a   4.25880530
_cell_length_b   4.25880530
_cell_length_c   14.12802070
_cell_angle_alpha   90.00000000
_cell_angle_beta   90.00000000
_cell_angle_gamma   90.00000000
_symmetry_Int_Tables_number   1
_chemical_formula_structural   LiF
_chemical_formula_sum   'Li16 F16'
_cell_volume   256.24588194
_cell_formula_units_Z   16
loop_
 _symmetry_equiv_pos_site_id
 _symmetry_equiv_pos_as_xyz
  1  'x, y, z'
loop_
 _atom_site_type_symbol
 _atom_site_label
 _atom_site_symmetry_multiplicity
 _atom_site_fract_x
 _atom_site_fract_y
 _atom_site_fract_z
 _atom_site_occupancy
  F  F0  1  0.59696654  0.79975795  0.00000000  1
  F  F1  1  0.40303346  0.20024205  -0.00000000  1
  F  F2  1  0.20024205  0.59696654  -0.00000000  1
  F  F3  1  0.79975795  0.40303346  -0.00000000  1
  F  F4  1  0.40303346  0.79975795  0.00000000  1
  F  F5  1  0.59696654  0.20024205  -0.00000000  1
  F  F6  1  0.79975795  0.59696654  0.00000000  1
  F  F7  1  0.20024205  0.40303346  -0.00000000  1
  F  F8  1  0.21042086  0.50000000  0.90622342  1
  F  F9  1  0.78957914  0.50000000  0.90622342  1
  F  F10  1  0.50000000  0.21042086  0.90622342  1
  F  F11  1  0.50000000  0.78957914  0.90622342  1
  F  F12  1  0.78957914  0.50000000  0.09377658  1
  F  F13  1  0.21042086  0.50000000  0.09377658  1
  F  F14  1  0.50000000  0.21042086  0.09377658  1
  F  F15  1  0.50000000  0.78957914  0.09377658  1
  Li  Li16  1  0.00000000  0.00000000  0.50000000  1
  Li  Li17  1  0.50000000  0.50000000  0.68602045  1
  Li  Li18  1  0.50000000  0.50000000  0.31397955  1
  Li  Li19  1  0.33417932  -0.00000000  0.50000000  1
  Li  Li20  1  0.66582068  0.00000000  0.50000000  1
  Li  Li21  1  0.00000000  0.33417932  0.50000000  1
  Li  Li22  1  0.00000000  0.66582068  0.50000000  1
  Li  Li23  1  0.69178232  0.00000000  0.67591986  1
  Li  Li24  1  -0.69178232  0.00000000  0.67591986  1
  Li  Li25  1  0.00000000  0.69178232  0.67591986  1
  Li  Li26  1  0.00000000  -0.69178232  0.67591986  1
  Li  Li27  1  -0.69178232  0.00000000  -0.67591986  1
  Li  Li28  1  0.69178232  0.00000000  -0.67591986  1
  Li  Li29  1  0.00000000  0.69178232  -0.67591986  1
  Li  Li30  1  0.00000000  -0.69178232  -0.67591986  1
  Li  Li31  1  0.00000000  0.00000000  0.00000000  1
