# generated using pymatgen
data_LiF
_symmetry_space_group_name_H-M   'P 1'
_cell_length_a   9.52464473
_cell_length_b   5.46107476
_cell_length_c   6.95146850
_cell_angle_alpha   90.00000000
_cell_angle_beta   90.00000000
_cell_angle_gamma   90.00000000
_symmetry_Int_Tables_number   1
_chemical_formula_structural   LiF
_chemical_formula_sum   'Li24 F24'
_cell_volume   361.57922248
_cell_formula_units_Z   24
loop_
 _symmetry_equiv_pos_site_id
 _symmetry_equiv_pos_as_xyz
  1  'x, y, z'
loop_
 _atom_site_type_symbol
 _atom_site_label
 _atom_site_symmetry_multiplicity
 _atom_site_fract_x
 _atom_site_fract_y
 _atom_site_fract_z
 _atom_site_occupancy
  F  F0  1  0.00000000  0.00000000  0.00000000  1
  F  F1  1  0.50000000  -0.00000000  0.50000000  1
  F  F2  1  0.00000000  0.50000000  -0.00000000  1
  F  F3  1  0.50000000  0.50000000  0.50000000  1
  F  F4  1  0.86826692  0.25000000  0.36197763  1
  F  F5  1  0.63173308  0.75000000  0.86197763  1
  F  F6  1  0.13173308  0.75000000  0.63802237  1
  F  F7  1  0.36826692  0.25000000  0.13802237  1
  F  F8  1  0.80065960  0.01622095  0.57639279  1
  F  F9  1  0.69934040  0.98377905  0.07639279  1
  F  F10  1  0.19934040  0.51622095  0.42360721  1
  F  F11  1  0.30065960  0.48377905  0.92360721  1
  F  F12  1  0.19934040  0.98377905  0.42360721  1
  F  F13  1  0.30065960  0.01622095  0.92360721  1
  F  F14  1  0.80065960  0.48377905  0.57639279  1
  F  F15  1  0.69934040  0.51622095  0.07639279  1
  F  F16  1  0.62050457  0.80259107  0.56248371  1
  F  F17  1  0.87949543  0.19740893  0.06248371  1
  F  F18  1  0.37949543  0.30259107  0.43751629  1
  F  F19  1  0.12050457  0.69740893  0.93751629  1
  F  F20  1  0.37949543  0.19740893  0.43751629  1
  F  F21  1  0.12050457  0.80259107  0.93751629  1
  F  F22  1  0.62050457  0.69740893  0.56248371  1
  F  F23  1  0.87949543  0.30259107  0.06248371  1
  Li  Li24  1  0.00000000  0.00000000  0.50000000  1
  Li  Li25  1  0.50000000  -0.00000000  -0.00000000  1
  Li  Li26  1  0.00000000  0.50000000  0.50000000  1
  Li  Li27  1  0.50000000  0.50000000  -0.00000000  1
  Li  Li28  1  0.04721813  0.25000000  0.44898503  1
  Li  Li29  1  0.45278187  0.75000000  0.94898503  1
  Li  Li30  1  0.95278187  0.75000000  0.55101497  1
  Li  Li31  1  0.54721813  0.25000000  0.05101497  1
  Li  Li32  1  0.56186128  0.44001141  0.17224710  1
  Li  Li33  1  -0.06186128  -0.44001141  0.67224710  1
  Li  Li34  1  -0.56186128  0.94001141  -0.17224710  1
  Li  Li35  1  1.06186128  0.05998859  0.32775290  1
  Li  Li36  1  -0.56186128  -0.44001141  -0.17224710  1
  Li  Li37  1  1.06186128  0.44001141  0.32775290  1
  Li  Li38  1  0.56186128  0.05998859  0.17224710  1
  Li  Li39  1  -0.06186128  0.94001141  0.67224710  1
  Li  Li40  1  0.38449939  0.50561194  0.58986295  1
  Li  Li41  1  0.11550061  0.49438806  0.08986295  1
  Li  Li42  1  0.61550061  0.00561194  0.41013705  1
  Li  Li43  1  0.88449939  0.99438806  0.91013705  1
  Li  Li44  1  0.61550061  0.49438806  0.41013705  1
  Li  Li45  1  0.88449939  0.50561194  0.91013705  1
  Li  Li46  1  0.38449939  0.99438806  0.58986295  1
  Li  Li47  1  0.11550061  0.00561194  0.08986295  1
