# generated using pymatgen
data_LiF
_symmetry_space_group_name_H-M   'P 1'
_cell_length_a   14.13940153
_cell_length_b   9.53126171
_cell_length_c   11.27905117
_cell_angle_alpha   90.00000000
_cell_angle_beta   90.00000000
_cell_angle_gamma   90.00000000
_symmetry_Int_Tables_number   1
_chemical_formula_structural   LiF
_chemical_formula_sum   'Li52 F52'
_cell_volume   1520.03640414
_cell_formula_units_Z   52
loop_
 _symmetry_equiv_pos_site_id
 _symmetry_equiv_pos_as_xyz
  1  'x, y, z'
loop_
 _atom_site_type_symbol
 _atom_site_label
 _atom_site_symmetry_multiplicity
 _atom_site_fract_x
 _atom_site_fract_y
 _atom_site_fract_z
 _atom_site_occupancy
  F  F0  1  0.99184443  0.82483931  0.02858953  1
  F  F1  1  0.50815557  0.17516069  0.52858953  1
  F  F2  1  0.00815557  0.32483931  0.97141047  1
  F  F3  1  0.49184443  0.67516069  0.47141047  1
  F  F4  1  0.00815557  0.17516069  0.97141047  1
  F  F5  1  0.49184443  0.82483931  0.47141047  1
  F  F6  1  0.99184443  0.67516069  0.02858953  1
  F  F7  1  0.50815557  0.32483931  0.52858953  1
  F  F8  1  0.62532833  0.88981944  0.88935932  1
  F  F9  1  0.87467167  0.11018056  0.38935932  1
  F  F10  1  0.37467167  0.38981944  0.11064068  1
  F  F11  1  0.12532833  0.61018056  0.61064068  1
  F  F12  1  0.37467167  0.11018056  0.11064068  1
  F  F13  1  0.12532833  0.88981944  0.61064068  1
  F  F14  1  0.62532833  0.61018056  0.88935932  1
  F  F15  1  0.87467167  0.38981944  0.38935932  1
  F  F16  1  0.46684944  0.71748601  0.85161399  1
  F  F17  1  0.03315056  0.28251399  0.35161399  1
  F  F18  1  0.53315056  0.21748601  0.14838601  1
  F  F19  1  0.96684944  0.78251399  0.64838601  1
  F  F20  1  0.53315056  0.28251399  0.14838601  1
  F  F21  1  0.96684944  0.71748601  0.64838601  1
  F  F22  1  0.46684944  0.78251399  0.85161399  1
  F  F23  1  0.03315056  0.21748601  0.35161399  1
  F  F24  1  0.06252042  0.44623500  0.02561195  1
  F  F25  1  0.43747958  0.55376500  0.52561195  1
  F  F26  1  0.93747958  0.94623500  0.97438805  1
  F  F27  1  0.56252042  0.05376500  0.47438805  1
  F  F28  1  0.93747958  0.55376500  0.97438805  1
  F  F29  1  0.56252042  0.44623500  0.47438805  1
  F  F30  1  0.06252042  0.05376500  0.02561195  1
  F  F31  1  0.43747958  0.94623500  0.52561195  1
  F  F32  1  0.30120971  0.25000000  0.77936611  1
  F  F33  1  0.19879029  0.75000000  0.27936611  1
  F  F34  1  0.69879029  0.75000000  0.22063389  1
  F  F35  1  0.80120971  0.25000000  0.72063389  1
  F  F36  1  0.94273004  0.14542349  0.33260834  1
  F  F37  1  0.55726996  0.85457651  0.83260834  1
  F  F38  1  0.05726996  0.64542349  0.66739166  1
  F  F39  1  0.44273004  0.35457651  0.16739166  1
  F  F40  1  0.05726996  0.85457651  0.66739166  1
  F  F41  1  0.44273004  0.14542349  0.16739166  1
  F  F42  1  0.94273004  0.35457651  0.33260834  1
  F  F43  1  0.55726996  0.64542349  0.83260834  1
  F  F44  1  0.54044854  0.90887920  0.76179517  1
  F  F45  1  0.95955146  0.09112080  0.26179517  1
  F  F46  1  0.45955146  0.40887920  0.23820483  1
  F  F47  1  0.04044854  0.59112080  0.73820483  1
  F  F48  1  0.45955146  0.09112080  0.23820483  1
  F  F49  1  0.04044854  0.90887920  0.73820483  1
  F  F50  1  0.54044854  0.59112080  0.76179517  1
  F  F51  1  0.95955146  0.40887920  0.26179517  1
  Li  Li52  1  0.33191886  0.00043073  0.81243817  1
  Li  Li53  1  0.16808114  -0.00043073  1.31243817  1
  Li  Li54  1  -0.33191886  0.50043073  -0.81243817  1
  Li  Li55  1  0.83191886  0.49956927  -0.31243817  1
  Li  Li56  1  -0.33191886  -0.00043073  -0.81243817  1
  Li  Li57  1  0.83191886  0.00043073  -0.31243817  1
  Li  Li58  1  0.33191886  0.49956927  0.81243817  1
  Li  Li59  1  0.16808114  0.50043073  1.31243817  1
  Li  Li60  1  0.00000000  0.00000000  0.00000000  1
  Li  Li61  1  0.50000000  0.00000000  0.50000000  1
  Li  Li62  1  0.00000000  0.50000000  0.00000000  1
  Li  Li63  1  0.50000000  0.50000000  0.50000000  1
  Li  Li64  1  0.00000000  0.00000000  0.50000000  1
  Li  Li65  1  0.50000000  0.00000000  0.00000000  1
  Li  Li66  1  0.00000000  0.50000000  0.50000000  1
  Li  Li67  1  0.50000000  0.50000000  0.00000000  1
  Li  Li68  1  0.75846752  0.56667678  0.50630810  1
  Li  Li69  1  0.74153248  0.43332322  0.00630810  1
  Li  Li70  1  0.24153248  0.06667678  0.49369190  1
  Li  Li71  1  0.25846752  0.93332322  0.99369190  1
  Li  Li72  1  0.24153248  0.43332322  0.49369190  1
  Li  Li73  1  0.25846752  0.56667678  0.99369190  1
  Li  Li74  1  0.75846752  0.93332322  0.50630810  1
  Li  Li75  1  0.74153248  0.06667678  0.00630810  1
  Li  Li76  1  0.80074049  0.54394584  0.33294952  1
  Li  Li77  1  0.69925951  0.45605416  0.83294952  1
  Li  Li78  1  0.19925951  0.04394584  0.66705048  1
  Li  Li79  1  0.30074049  0.95605416  0.16705048  1
  Li  Li80  1  0.19925951  0.45605416  0.66705048  1
  Li  Li81  1  0.30074049  0.54394584  0.16705048  1
  Li  Li82  1  0.80074049  0.95605416  0.33294952  1
  Li  Li83  1  0.69925951  0.04394584  0.83294952  1
  Li  Li84  1  0.91378235  0.17534283  0.98149998  1
  Li  Li85  1  0.58621765  0.82465717  0.48149998  1
  Li  Li86  1  0.08621765  0.67534283  0.01850002  1
  Li  Li87  1  0.41378235  0.32465717  0.51850002  1
  Li  Li88  1  0.08621765  0.82465717  0.01850002  1
  Li  Li89  1  0.41378235  0.17534283  0.51850002  1
  Li  Li90  1  0.91378235  0.32465717  0.98149998  1
  Li  Li91  1  0.58621765  0.67534283  0.48149998  1
  Li  Li92  1  0.34582550  0.25000000  0.00806104  1
  Li  Li93  1  0.15417450  0.75000000  0.50806104  1
  Li  Li94  1  0.65417450  0.75000000  0.99193896  1
  Li  Li95  1  0.84582550  0.25000000  0.49193896  1
  Li  Li96  1  0.84927324  0.09828246  0.27408776  1
  Li  Li97  1  0.65072676  0.90171754  0.77408776  1
  Li  Li98  1  0.15072676  0.59828246  0.72591224  1
  Li  Li99  1  0.34927324  0.40171754  0.22591224  1
  Li  Li100  1  0.15072676  0.90171754  0.72591224  1
  Li  Li101  1  0.34927324  0.09828246  0.22591224  1
  Li  Li102  1  0.84927324  0.40171754  0.27408776  1
  Li  Li103  1  0.65072676  0.59828246  0.77408776  1
