# generated using pymatgen
data_LiF
_symmetry_space_group_name_H-M   'P 1'
_cell_length_a   8.66808246
_cell_length_b   8.66808246
_cell_length_c   12.24471373
_cell_angle_alpha   90.00000000
_cell_angle_beta   90.00000000
_cell_angle_gamma   120.00000000
_symmetry_Int_Tables_number   1
_chemical_formula_structural   LiF
_chemical_formula_sum   'Li41 F41'
_cell_volume   796.75598754
_cell_formula_units_Z   41
loop_
 _symmetry_equiv_pos_site_id
 _symmetry_equiv_pos_as_xyz
  1  'x, y, z'
loop_
 _atom_site_type_symbol
 _atom_site_label
 _atom_site_symmetry_multiplicity
 _atom_site_fract_x
 _atom_site_fract_y
 _atom_site_fract_z
 _atom_site_occupancy
  F  F0  1  0.18772808  0.59631888  0.50000000  1
  F  F1  1  0.40368112  0.59140920  0.50000000  1
  F  F2  1  0.40859080  0.81227192  0.50000000  1
  F  F3  1  0.59631888  0.18772808  0.50000000  1
  F  F4  1  0.59140920  0.40368112  0.50000000  1
  F  F5  1  0.81227192  0.40859080  0.50000000  1
  F  F6  1  0.51370325  0.61095051  0.12486937  1
  F  F7  1  0.38904949  0.90275274  0.12486937  1
  F  F8  1  0.09724726  0.48629675  0.12486937  1
  F  F9  1  0.51370325  0.61095051  0.87513063  1
  F  F10  1  0.38904949  0.90275274  0.87513063  1
  F  F11  1  0.09724726  0.48629675  0.87513063  1
  F  F12  1  0.61095051  0.51370325  0.87513063  1
  F  F13  1  0.90275274  0.38904949  0.87513063  1
  F  F14  1  0.48629675  0.09724726  0.87513063  1
  F  F15  1  0.61095051  0.51370325  0.12486937  1
  F  F16  1  0.90275274  0.38904949  0.12486937  1
  F  F17  1  0.48629675  0.09724726  0.12486937  1
  F  F18  1  0.94173960  0.42656197  0.00000000  1
  F  F19  1  0.57343803  0.51517764  0.00000000  1
  F  F20  1  0.48482236  0.05826040  -0.00000000  1
  F  F21  1  0.42656197  0.94173960  -0.00000000  1
  F  F22  1  0.51517764  0.57343803  0.00000000  1
  F  F23  1  0.05826040  0.48482236  -0.00000000  1
  F  F24  1  0.14285537  0.00000000  0.50000000  1
  F  F25  1  0.00000000  0.14285537  0.50000000  1
  F  F26  1  0.85714463  0.85714463  0.50000000  1
  F  F27  1  0.95248477  0.31016671  -0.00000000  1
  F  F28  1  0.68983329  0.64231806  0.00000000  1
  F  F29  1  0.35768194  0.04751523  -0.00000000  1
  F  F30  1  0.31016671  0.95248477  0.00000000  1
  F  F31  1  0.64231806  0.68983329  0.00000000  1
  F  F32  1  0.04751523  0.35768194  0.00000000  1
  F  F33  1  0.33333333  0.66666667  0.50000000  1
  F  F34  1  0.66666667  0.33333333  0.50000000  1
  F  F35  1  0.45390715  0.00000000  0.82966465  1
  F  F36  1  0.00000000  0.45390715  0.82966465  1
  F  F37  1  0.54609285  0.54609285  0.82966465  1
  F  F38  1  0.45390715  0.00000000  0.17033535  1
  F  F39  1  0.00000000  0.45390715  0.17033535  1
  F  F40  1  0.54609285  0.54609285  0.17033535  1
  Li  Li41  1  0.90440632  0.00000000  0.69259015  1
  Li  Li42  1  0.00000000  0.90440632  0.69259015  1
  Li  Li43  1  0.09559368  0.09559368  0.69259015  1
  Li  Li44  1  0.90440632  0.00000000  0.30740985  1
  Li  Li45  1  0.00000000  0.90440632  0.30740985  1
  Li  Li46  1  0.09559368  0.09559368  0.30740985  1
  Li  Li47  1  0.13301119  0.00000000  0.94547347  1
  Li  Li48  1  0.00000000  0.13301119  0.94547347  1
  Li  Li49  1  0.86698881  0.86698881  0.94547347  1
  Li  Li50  1  0.13301119  0.00000000  0.05452653  1
  Li  Li51  1  0.00000000  0.13301119  0.05452653  1
  Li  Li52  1  0.86698881  0.86698881  0.05452653  1
  Li  Li53  1  0.33333333  0.66666667  0.41072506  1
  Li  Li54  1  0.33333333  0.66666667  0.58927494  1
  Li  Li55  1  0.66666667  0.33333333  0.58927494  1
  Li  Li56  1  0.66666667  0.33333333  0.41072506  1
  Li  Li57  1  0.74420973  0.00000000  0.50000000  1
  Li  Li58  1  0.00000000  0.74420973  0.50000000  1
  Li  Li59  1  0.25579027  0.25579027  0.50000000  1
  Li  Li60  1  0.00000000  0.00000000  0.50000000  1
  Li  Li61  1  0.00000000  0.00000000  0.00000000  1
  Li  Li62  1  0.55356312  0.00000000  0.10352323  1
  Li  Li63  1  0.00000000  0.55356312  0.10352323  1
  Li  Li64  1  0.44643688  0.44643688  0.10352323  1
  Li  Li65  1  0.55356312  0.00000000  0.89647677  1
  Li  Li66  1  0.00000000  0.55356312  0.89647677  1
  Li  Li67  1  0.44643688  0.44643688  0.89647677  1
  Li  Li68  1  0.65054109  0.49055323  0.41329809  1
  Li  Li69  1  -0.49055323  0.15998786  0.41329809  1
  Li  Li70  1  -0.15998786  -0.65054109  0.41329809  1
  Li  Li71  1  0.65054109  0.49055323  -0.41329809  1
  Li  Li72  1  -0.49055323  0.15998786  -0.41329809  1
  Li  Li73  1  -0.15998786  -0.65054109  -0.41329809  1
  Li  Li74  1  0.49055323  0.65054109  -0.41329809  1
  Li  Li75  1  0.15998786  -0.49055323  -0.41329809  1
  Li  Li76  1  -0.65054109  -0.15998786  -0.41329809  1
  Li  Li77  1  0.49055323  0.65054109  0.41329809  1
  Li  Li78  1  0.15998786  -0.49055323  0.41329809  1
  Li  Li79  1  -0.65054109  -0.15998786  0.41329809  1
  Li  Li80  1  0.33333333  0.66666667  0.00000000  1
  Li  Li81  1  0.66666667  0.33333333  0.00000000  1
