# generated using pymatgen
data_LiF
_symmetry_space_group_name_H-M   'P 1'
_cell_length_a   7.03950920
_cell_length_b   7.03950920
_cell_length_c   19.77710041
_cell_angle_alpha   90.00000000
_cell_angle_beta   90.00000000
_cell_angle_gamma   90.00000000
_symmetry_Int_Tables_number   1
_chemical_formula_structural   LiF
_chemical_formula_sum   'Li31 F31'
_cell_volume   980.04807607
_cell_formula_units_Z   31
loop_
 _symmetry_equiv_pos_site_id
 _symmetry_equiv_pos_as_xyz
  1  'x, y, z'
loop_
 _atom_site_type_symbol
 _atom_site_label
 _atom_site_symmetry_multiplicity
 _atom_site_fract_x
 _atom_site_fract_y
 _atom_site_fract_z
 _atom_site_occupancy
  F  F0  1  0.29992668  0.45890610  0.35423666  1
  F  F1  1  -0.29992668  -0.45890610  0.35423666  1
  F  F2  1  -0.45890610  0.29992668  0.35423666  1
  F  F3  1  0.45890610  -0.29992668  0.35423666  1
  F  F4  1  -0.29992668  0.45890610  -0.35423666  1
  F  F5  1  0.29992668  -0.45890610  -0.35423666  1
  F  F6  1  0.45890610  0.29992668  -0.35423666  1
  F  F7  1  -0.45890610  -0.29992668  -0.35423666  1
  F  F8  1  -0.29992668  -0.45890610  -0.35423666  1
  F  F9  1  0.29992668  0.45890610  -0.35423666  1
  F  F10  1  0.45890610  -0.29992668  -0.35423666  1
  F  F11  1  -0.45890610  0.29992668  -0.35423666  1
  F  F12  1  0.29992668  -0.45890610  0.35423666  1
  F  F13  1  -0.29992668  0.45890610  0.35423666  1
  F  F14  1  -0.45890610  -0.29992668  0.35423666  1
  F  F15  1  0.45890610  0.29992668  0.35423666  1
  F  F16  1  0.77463181  0.50000000  0.17452832  1
  F  F17  1  0.22536819  0.50000000  0.17452832  1
  F  F18  1  0.50000000  0.77463181  0.17452832  1
  F  F19  1  0.50000000  0.22536819  0.17452832  1
  F  F20  1  0.22536819  0.50000000  0.82547168  1
  F  F21  1  0.77463181  0.50000000  0.82547168  1
  F  F22  1  0.50000000  0.77463181  0.82547168  1
  F  F23  1  0.50000000  0.22536819  0.82547168  1
  F  F24  1  0.00000000  0.50000000  0.50000000  1
  F  F25  1  0.50000000  0.00000000  0.50000000  1
  F  F26  1  0.20339725  0.00000000  0.00000000  1
  F  F27  1  0.79660275  0.00000000  0.00000000  1
  F  F28  1  0.00000000  0.20339725  0.00000000  1
  F  F29  1  0.00000000  0.79660275  0.00000000  1
  F  F30  1  0.50000000  0.50000000  0.00000000  1
  Li  Li31  1  0.83476028  0.83476028  0.30734890  1
  Li  Li32  1  0.16523972  0.16523972  0.30734890  1
  Li  Li33  1  0.16523972  0.83476028  0.30734890  1
  Li  Li34  1  0.83476028  0.16523972  0.30734890  1
  Li  Li35  1  0.16523972  0.83476028  0.69265110  1
  Li  Li36  1  0.83476028  0.16523972  0.69265110  1
  Li  Li37  1  0.83476028  0.83476028  0.69265110  1
  Li  Li38  1  0.16523972  0.16523972  0.69265110  1
  Li  Li39  1  0.32303620  0.32303620  0.00000000  1
  Li  Li40  1  0.67696380  0.67696380  0.00000000  1
  Li  Li41  1  0.67696380  0.32303620  -0.00000000  1
  Li  Li42  1  0.32303620  0.67696380  0.00000000  1
  Li  Li43  1  0.00000000  0.00000000  0.00000000  1
  Li  Li44  1  0.80598090  -0.00000000  0.64528490  1
  Li  Li45  1  0.19401910  0.00000000  0.64528490  1
  Li  Li46  1  0.00000000  0.80598090  0.64528490  1
  Li  Li47  1  0.00000000  0.19401910  0.64528490  1
  Li  Li48  1  0.19401910  0.00000000  0.35471510  1
  Li  Li49  1  0.80598090  -0.00000000  0.35471510  1
  Li  Li50  1  0.00000000  0.80598090  0.35471510  1
  Li  Li51  1  0.00000000  0.19401910  0.35471510  1
  Li  Li52  1  0.00000000  0.00000000  0.68643678  1
  Li  Li53  1  0.00000000  0.00000000  0.31356322  1
  Li  Li54  1  0.16423105  0.16423105  0.89767261  1
  Li  Li55  1  0.83576895  0.83576895  0.89767261  1
  Li  Li56  1  0.83576895  0.16423105  0.89767261  1
  Li  Li57  1  0.16423105  0.83576895  0.89767261  1
  Li  Li58  1  0.83576895  0.16423105  0.10232739  1
  Li  Li59  1  0.16423105  0.83576895  0.10232739  1
  Li  Li60  1  0.16423105  0.16423105  0.10232739  1
  Li  Li61  1  0.83576895  0.83576895  0.10232739  1
