# generated using pymatgen
data_Li2YAs(P2Pb)2
_symmetry_space_group_name_H-M   'P 1'
_cell_length_a   4.31706190
_cell_length_b   4.48369933
_cell_length_c   6.95907483
_cell_angle_alpha   96.66533263
_cell_angle_beta   104.07369834
_cell_angle_gamma   114.62396463
_symmetry_Int_Tables_number   1
_chemical_formula_structural   Li2YAs(P2Pb)2
_chemical_formula_sum   'Li2 Y1 As1 P4 Pb2'
_cell_volume   115.11127768
_cell_formula_units_Z   1
loop_
 _symmetry_equiv_pos_site_id
 _symmetry_equiv_pos_as_xyz
  1  'x, y, z'
loop_
 _atom_site_type_symbol
 _atom_site_label
 _atom_site_symmetry_multiplicity
 _atom_site_fract_x
 _atom_site_fract_y
 _atom_site_fract_z
 _atom_site_occupancy
  Pb  Pb0  1  0.00000000  0.00000000  0.00000000  1
  Pb  Pb1  1  0.50000000  0.50000000  0.50000000  1
  P  P2  1  0.50000000  0.50000000  0.00000000  1
  P  P3  1  0.50000000  0.00000000  0.50000000  1
  P  P4  1  0.00000000  0.50000000  0.50000000  1
  P  P5  1  0.60601810  0.01194924  0.14600401  1
  As  As6  1  0.78650639  0.16135587  0.18724125  1
  Li  Li7  1  0.48775590  0.01211400  0.37466937  1
  Li  Li8  1  0.87084215  0.06747989  0.23689564  1
  Y  Y9  1  0.02053044  0.69656115  0.69835911  1
