# generated using pymatgen
data_LiF
_symmetry_space_group_name_H-M   'P 1'
_cell_length_a   17.97643715
_cell_length_b   17.97643715
_cell_length_c   6.41920450
_cell_angle_alpha   90.00000000
_cell_angle_beta   90.00000000
_cell_angle_gamma   90.00000000
_symmetry_Int_Tables_number   1
_chemical_formula_structural   LiF
_chemical_formula_sum   'Li56 F56'
_cell_volume   2074.38065088
_cell_formula_units_Z   56
loop_
 _symmetry_equiv_pos_site_id
 _symmetry_equiv_pos_as_xyz
  1  'x, y, z'
loop_
 _atom_site_type_symbol
 _atom_site_label
 _atom_site_symmetry_multiplicity
 _atom_site_fract_x
 _atom_site_fract_y
 _atom_site_fract_z
 _atom_site_occupancy
  F  F0  1  0.65237524  0.86636279  0.58540780  1
  F  F1  1  0.84762476  0.13363721  0.08540780  1
  F  F2  1  0.38363721  0.40237524  0.83540780  1
  F  F3  1  0.11636279  0.59762476  0.33540780  1
  F  F4  1  0.84762476  0.86636279  0.41459220  1
  F  F5  1  0.65237524  0.13363721  0.91459220  1
  F  F6  1  0.11636279  0.40237524  0.16459220  1
  F  F7  1  0.38363721  0.59762476  0.66459220  1
  F  F8  1  0.34762476  0.13363721  0.41459220  1
  F  F9  1  0.15237524  0.86636279  0.91459220  1
  F  F10  1  0.61636279  0.59762476  0.16459220  1
  F  F11  1  0.88363721  0.40237524  0.66459220  1
  F  F12  1  0.15237524  0.13363721  0.58540780  1
  F  F13  1  0.34762476  0.86636279  0.08540780  1
  F  F14  1  0.88363721  0.59762476  0.83540780  1
  F  F15  1  0.61636279  0.40237524  0.33540780  1
  F  F16  1  0.15237524  0.36636279  0.08540780  1
  F  F17  1  0.34762476  0.63363721  0.58540780  1
  F  F18  1  0.88363721  0.90237524  0.33540780  1
  F  F19  1  0.61636279  0.09762476  0.83540780  1
  F  F20  1  0.34762476  0.36636279  0.91459220  1
  F  F21  1  0.15237524  0.63363721  0.41459220  1
  F  F22  1  0.61636279  0.90237524  0.66459220  1
  F  F23  1  0.88363721  0.09762476  0.16459220  1
  F  F24  1  0.84762476  0.63363721  0.91459220  1
  F  F25  1  0.65237524  0.36636279  0.41459220  1
  F  F26  1  0.11636279  0.09762476  0.66459220  1
  F  F27  1  0.38363721  0.90237524  0.16459220  1
  F  F28  1  0.65237524  0.63363721  0.08540780  1
  F  F29  1  0.84762476  0.36636279  0.58540780  1
  F  F30  1  0.38363721  0.09762476  0.33540780  1
  F  F31  1  0.11636279  0.90237524  0.83540780  1
  F  F32  1  0.49946609  0.00000000  0.25000000  1
  F  F33  1  0.00053391  0.00000000  0.75000000  1
  F  F34  1  0.25000000  0.24946609  0.50000000  1
  F  F35  1  0.25000000  0.75053391  0.00000000  1
  F  F36  1  0.50053391  0.00000000  0.75000000  1
  F  F37  1  0.99946609  0.00000000  0.25000000  1
  F  F38  1  0.75000000  0.75053391  0.50000000  1
  F  F39  1  0.75000000  0.24946609  0.00000000  1
  F  F40  1  0.99946609  0.50000000  0.75000000  1
  F  F41  1  0.50053391  0.50000000  0.25000000  1
  F  F42  1  0.75000000  0.74946609  0.00000000  1
  F  F43  1  0.75000000  0.25053391  0.50000000  1
  F  F44  1  0.00053391  0.50000000  0.25000000  1
  F  F45  1  0.49946609  0.50000000  0.75000000  1
  F  F46  1  0.25000000  0.25053391  0.00000000  1
  F  F47  1  0.25000000  0.74946609  0.50000000  1
  F  F48  1  0.00000000  0.25000000  0.12500000  1
  F  F49  1  0.00000000  0.75000000  0.37500000  1
  F  F50  1  0.00000000  0.75000000  0.87500000  1
  F  F51  1  0.00000000  0.25000000  0.62500000  1
  F  F52  1  0.50000000  0.75000000  0.62500000  1
  F  F53  1  0.50000000  0.25000000  0.87500000  1
  F  F54  1  0.50000000  0.25000000  0.37500000  1
  F  F55  1  0.50000000  0.75000000  0.12500000  1
  Li  Li56  1  0.51159910  0.12914743  0.56200887  1
  Li  Li57  1  -0.01159910  -0.12914743  1.06200887  1
  Li  Li58  1  0.12085257  1.26159910  0.81200887  1
  Li  Li59  1  0.37914743  -0.26159910  1.31200887  1
  Li  Li60  1  -0.01159910  0.12914743  -0.56200887  1
  Li  Li61  1  0.51159910  -0.12914743  -0.06200887  1
  Li  Li62  1  0.37914743  1.26159910  0.18799113  1
  Li  Li63  1  0.12085257  -0.26159910  -0.31200887  1
  Li  Li64  1  -0.51159910  -0.12914743  -0.56200887  1
  Li  Li65  1  1.01159910  0.12914743  -0.06200887  1
  Li  Li66  1  0.87914743  -0.26159910  0.18799113  1
  Li  Li67  1  0.62085257  1.26159910  -0.31200887  1
  Li  Li68  1  1.01159910  -0.12914743  0.56200887  1
  Li  Li69  1  -0.51159910  0.12914743  1.06200887  1
  Li  Li70  1  0.62085257  -0.26159910  0.81200887  1
  Li  Li71  1  0.87914743  1.26159910  1.31200887  1
  Li  Li72  1  1.01159910  0.62914743  1.06200887  1
  Li  Li73  1  0.48840090  0.37085257  1.56200887  1
  Li  Li74  1  0.62085257  1.76159910  1.31200887  1
  Li  Li75  1  0.87914743  0.23840090  1.81200887  1
  Li  Li76  1  0.48840090  0.62914743  -0.06200887  1
  Li  Li77  1  1.01159910  0.37085257  0.43799113  1
  Li  Li78  1  0.87914743  1.76159910  0.68799113  1
  Li  Li79  1  0.62085257  0.23840090  0.18799113  1
  Li  Li80  1  -0.01159910  0.37085257  -0.06200887  1
  Li  Li81  1  1.51159910  0.62914743  0.43799113  1
  Li  Li82  1  1.37914743  0.23840090  0.68799113  1
  Li  Li83  1  1.12085257  1.76159910  0.18799113  1
  Li  Li84  1  1.51159910  0.37085257  1.06200887  1
  Li  Li85  1  -0.01159910  0.62914743  1.56200887  1
  Li  Li86  1  1.12085257  0.23840090  1.31200887  1
  Li  Li87  1  1.37914743  1.76159910  1.81200887  1
  Li  Li88  1  0.90013376  0.15013376  0.12500000  1
  Li  Li89  1  0.59986624  0.84986624  0.62500000  1
  Li  Li90  1  0.09986624  0.65013376  0.37500000  1
  Li  Li91  1  0.40013376  0.34986624  0.87500000  1
  Li  Li92  1  0.09986624  0.84986624  0.87500000  1
  Li  Li93  1  0.40013376  0.15013376  0.37500000  1
  Li  Li94  1  0.90013376  0.34986624  0.62500000  1
  Li  Li95  1  0.59986624  0.65013376  0.12500000  1
  Li  Li96  1  0.40013376  0.65013376  0.62500000  1
  Li  Li97  1  0.09986624  0.34986624  0.12500000  1
  Li  Li98  1  0.59986624  0.15013376  0.87500000  1
  Li  Li99  1  0.90013376  0.84986624  0.37500000  1
  Li  Li100  1  0.59986624  0.34986624  0.37500000  1
  Li  Li101  1  0.90013376  0.65013376  0.87500000  1
  Li  Li102  1  0.40013376  0.84986624  0.12500000  1
  Li  Li103  1  0.09986624  0.15013376  0.62500000  1
  Li  Li104  1  0.00000000  0.25000000  0.37500000  1
  Li  Li105  1  0.00000000  0.75000000  0.62500000  1
  Li  Li106  1  0.50000000  0.25000000  0.62500000  1
  Li  Li107  1  0.50000000  0.75000000  0.37500000  1
  Li  Li108  1  0.50000000  0.75000000  0.87500000  1
  Li  Li109  1  0.50000000  0.25000000  0.12500000  1
  Li  Li110  1  0.00000000  0.75000000  0.12500000  1
  Li  Li111  1  0.00000000  0.25000000  0.87500000  1
