# generated using pymatgen
data_LiF
_symmetry_space_group_name_H-M   'P 1'
_cell_length_a   8.53490092
_cell_length_b   6.35773520
_cell_length_c   9.91604890
_cell_angle_alpha   90.00000000
_cell_angle_beta   90.00000000
_cell_angle_gamma   90.00000000
_symmetry_Int_Tables_number   1
_chemical_formula_structural   LiF
_chemical_formula_sum   'Li24 F24'
_cell_volume   538.07099162
_cell_formula_units_Z   24
loop_
 _symmetry_equiv_pos_site_id
 _symmetry_equiv_pos_as_xyz
  1  'x, y, z'
loop_
 _atom_site_type_symbol
 _atom_site_label
 _atom_site_symmetry_multiplicity
 _atom_site_fract_x
 _atom_site_fract_y
 _atom_site_fract_z
 _atom_site_occupancy
  F  F0  1  0.28390709  0.43305653  0.12809196  1
  F  F1  1  0.21609291  0.56694347  0.62809196  1
  F  F2  1  0.71609291  0.93305653  0.87190804  1
  F  F3  1  0.78390709  0.06694347  0.37190804  1
  F  F4  1  0.71609291  0.56694347  0.87190804  1
  F  F5  1  0.78390709  0.43305653  0.37190804  1
  F  F6  1  0.28390709  0.06694347  0.12809196  1
  F  F7  1  0.21609291  0.93305653  0.62809196  1
  F  F8  1  0.00000000  0.00000000  0.50000000  1
  F  F9  1  0.50000000  0.00000000  0.00000000  1
  F  F10  1  0.00000000  0.50000000  0.50000000  1
  F  F11  1  0.50000000  0.50000000  0.00000000  1
  F  F12  1  0.03681098  0.25000000  0.87875931  1
  F  F13  1  0.46318902  0.75000000  0.37875931  1
  F  F14  1  0.96318902  0.75000000  0.12124069  1
  F  F15  1  0.53681098  0.25000000  0.62124069  1
  F  F16  1  0.89674571  0.18114440  0.40534504  1
  F  F17  1  0.60325429  0.81885560  0.90534504  1
  F  F18  1  0.10325429  0.68114440  0.59465496  1
  F  F19  1  0.39674571  0.31885560  0.09465496  1
  F  F20  1  0.10325429  0.81885560  0.59465496  1
  F  F21  1  0.39674571  0.18114440  0.09465496  1
  F  F22  1  0.89674571  0.31885560  0.40534504  1
  F  F23  1  0.60325429  0.68114440  0.90534504  1
  Li  Li24  1  0.07528903  0.25000000  0.69165842  1
  Li  Li25  1  0.42471097  0.75000000  0.19165842  1
  Li  Li26  1  0.92471097  0.75000000  0.30834158  1
  Li  Li27  1  0.57528903  0.25000000  0.80834158  1
  Li  Li28  1  0.59345500  0.02923482  0.11132417  1
  Li  Li29  1  -0.09345500  -0.02923482  0.61132417  1
  Li  Li30  1  -0.59345500  0.52923482  -0.11132417  1
  Li  Li31  1  1.09345500  0.47076518  0.38867583  1
  Li  Li32  1  -0.59345500  -0.02923482  -0.11132417  1
  Li  Li33  1  1.09345500  0.02923482  0.38867583  1
  Li  Li34  1  0.59345500  0.47076518  0.11132417  1
  Li  Li35  1  -0.09345500  0.52923482  0.61132417  1
  Li  Li36  1  0.59561283  0.04202327  0.66886620  1
  Li  Li37  1  0.90438717  0.95797673  0.16886620  1
  Li  Li38  1  0.40438717  0.54202327  0.33113380  1
  Li  Li39  1  0.09561283  0.45797673  0.83113380  1
  Li  Li40  1  0.40438717  0.95797673  0.33113380  1
  Li  Li41  1  0.09561283  0.04202327  0.83113380  1
  Li  Li42  1  0.59561283  0.45797673  0.66886620  1
  Li  Li43  1  0.90438717  0.54202327  0.16886620  1
  Li  Li44  1  0.00000000  0.00000000  0.00000000  1
  Li  Li45  1  0.50000000  0.00000000  0.50000000  1
  Li  Li46  1  0.00000000  0.50000000  0.00000000  1
  Li  Li47  1  0.50000000  0.50000000  0.50000000  1
