# generated using pymatgen
data_LiF
_symmetry_space_group_name_H-M   'P 1'
_cell_length_a   10.25611836
_cell_length_b   10.25611836
_cell_length_c   10.72314040
_cell_angle_alpha   90.00000000
_cell_angle_beta   90.00000000
_cell_angle_gamma   120.00000000
_symmetry_Int_Tables_number   1
_chemical_formula_structural   LiF
_chemical_formula_sum   'Li32 F32'
_cell_volume   976.82928725
_cell_formula_units_Z   32
loop_
 _symmetry_equiv_pos_site_id
 _symmetry_equiv_pos_as_xyz
  1  'x, y, z'
loop_
 _atom_site_type_symbol
 _atom_site_label
 _atom_site_symmetry_multiplicity
 _atom_site_fract_x
 _atom_site_fract_y
 _atom_site_fract_z
 _atom_site_occupancy
  F  F0  1  0.25162839  0.95043115  0.50000000  1
  F  F1  1  0.04956885  0.30119724  0.50000000  1
  F  F2  1  0.69880276  0.74837161  0.50000000  1
  F  F3  1  0.95043115  0.25162839  0.50000000  1
  F  F4  1  0.30119724  0.04956885  0.50000000  1
  F  F5  1  0.74837161  0.69880276  0.50000000  1
  F  F6  1  0.63621385  0.79227899  -0.00000000  1
  F  F7  1  0.20772101  0.84393486  0.00000000  1
  F  F8  1  0.15606514  0.36378615  0.00000000  1
  F  F9  1  0.79227899  0.63621385  0.00000000  1
  F  F10  1  0.84393486  0.20772101  0.00000000  1
  F  F11  1  0.36378615  0.15606514  0.00000000  1
  F  F12  1  0.79628941  0.86933693  0.17223657  1
  F  F13  1  0.13066307  0.92695248  0.17223657  1
  F  F14  1  0.07304752  0.20371059  0.17223657  1
  F  F15  1  0.79628941  0.86933693  0.82776343  1
  F  F16  1  0.13066307  0.92695248  0.82776343  1
  F  F17  1  0.07304752  0.20371059  0.82776343  1
  F  F18  1  0.86933693  0.79628941  0.82776343  1
  F  F19  1  0.92695248  0.13066307  0.82776343  1
  F  F20  1  0.20371059  0.07304752  0.82776343  1
  F  F21  1  0.86933693  0.79628941  0.17223657  1
  F  F22  1  0.92695248  0.13066307  0.17223657  1
  F  F23  1  0.20371059  0.07304752  0.17223657  1
  F  F24  1  0.53908844  -0.00000000  0.79986471  1
  F  F25  1  0.00000000  0.53908844  0.79986471  1
  F  F26  1  0.46091156  0.46091156  0.79986471  1
  F  F27  1  0.53908844  -0.00000000  0.20013529  1
  F  F28  1  0.00000000  0.53908844  0.20013529  1
  F  F29  1  0.46091156  0.46091156  0.20013529  1
  F  F30  1  0.00000000  0.00000000  0.34531169  1
  F  F31  1  0.00000000  0.00000000  0.65468831  1
  Li  Li32  1  0.90955599  0.21583422  0.89827637  1
  Li  Li33  1  -0.21583422  0.69372177  0.89827637  1
  Li  Li34  1  -0.69372177  -0.90955599  0.89827637  1
  Li  Li35  1  0.90955599  0.21583422  -0.89827637  1
  Li  Li36  1  -0.21583422  0.69372177  -0.89827637  1
  Li  Li37  1  -0.69372177  -0.90955599  -0.89827637  1
  Li  Li38  1  0.21583422  0.90955599  -0.89827637  1
  Li  Li39  1  0.69372177  -0.21583422  -0.89827637  1
  Li  Li40  1  -0.90955599  -0.69372177  -0.89827637  1
  Li  Li41  1  0.21583422  0.90955599  0.89827637  1
  Li  Li42  1  0.69372177  -0.21583422  0.89827637  1
  Li  Li43  1  -0.90955599  -0.69372177  0.89827637  1
  Li  Li44  1  0.33333333  0.66666667  0.16634866  1
  Li  Li45  1  0.33333333  0.66666667  0.83365134  1
  Li  Li46  1  0.66666667  0.33333333  0.83365134  1
  Li  Li47  1  0.66666667  0.33333333  0.16634866  1
  Li  Li48  1  0.81341250  0.17762879  0.50000000  1
  Li  Li49  1  0.82237121  0.63578371  0.50000000  1
  Li  Li50  1  0.36421629  0.18658750  0.50000000  1
  Li  Li51  1  0.17762879  0.81341250  0.50000000  1
  Li  Li52  1  0.63578371  0.82237121  0.50000000  1
  Li  Li53  1  0.18658750  0.36421629  0.50000000  1
  Li  Li54  1  0.33333333  0.66666667  0.50000000  1
  Li  Li55  1  0.66666667  0.33333333  0.50000000  1
  Li  Li56  1  0.00000000  0.00000000  0.50000000  1
  Li  Li57  1  0.14658961  0.90385136  0.00000000  1
  Li  Li58  1  0.09614864  0.24273826  0.00000000  1
  Li  Li59  1  0.75726174  0.85341039  0.00000000  1
  Li  Li60  1  0.90385136  0.14658961  0.00000000  1
  Li  Li61  1  0.24273826  0.09614864  0.00000000  1
  Li  Li62  1  0.85341039  0.75726174  0.00000000  1
  Li  Li63  1  0.00000000  0.00000000  0.00000000  1
