# generated using pymatgen
data_LiF
_symmetry_space_group_name_H-M   'P 1'
_cell_length_a   18.80703510
_cell_length_b   7.07077579
_cell_length_c   19.88181102
_cell_angle_alpha   90.00000000
_cell_angle_beta   90.00000000
_cell_angle_gamma   90.00000000
_symmetry_Int_Tables_number   1
_chemical_formula_structural   LiF
_chemical_formula_sum   'Li68 F68'
_cell_volume   2643.88976065
_cell_formula_units_Z   68
loop_
 _symmetry_equiv_pos_site_id
 _symmetry_equiv_pos_as_xyz
  1  'x, y, z'
loop_
 _atom_site_type_symbol
 _atom_site_label
 _atom_site_symmetry_multiplicity
 _atom_site_fract_x
 _atom_site_fract_y
 _atom_site_fract_z
 _atom_site_occupancy
  F  F0  1  0.00000000  0.00000000  0.00000000  1
  F  F1  1  0.50000000  0.00000000  0.50000000  1
  F  F2  1  0.00000000  0.50000000  0.00000000  1
  F  F3  1  0.50000000  0.50000000  0.50000000  1
  F  F4  1  0.54961202  0.00651446  0.36817604  1
  F  F5  1  0.95038798  0.99348554  0.86817604  1
  F  F6  1  0.45038798  0.50651446  0.63182396  1
  F  F7  1  0.04961202  0.49348554  0.13182396  1
  F  F8  1  0.45038798  0.99348554  0.63182396  1
  F  F9  1  0.04961202  0.00651446  0.13182396  1
  F  F10  1  0.54961202  0.49348554  0.36817604  1
  F  F11  1  0.95038798  0.50651446  0.86817604  1
  F  F12  1  0.15743850  0.14473199  0.21166960  1
  F  F13  1  0.34256150  0.85526801  0.71166960  1
  F  F14  1  0.84256150  0.64473199  0.78833040  1
  F  F15  1  0.65743850  0.35526801  0.28833040  1
  F  F16  1  0.84256150  0.85526801  0.78833040  1
  F  F17  1  0.65743850  0.14473199  0.28833040  1
  F  F18  1  0.15743850  0.35526801  0.21166960  1
  F  F19  1  0.34256150  0.64473199  0.71166960  1
  F  F20  1  0.01495783  0.25000000  0.41601589  1
  F  F21  1  0.48504217  0.75000000  0.91601589  1
  F  F22  1  0.98504217  0.75000000  0.58398411  1
  F  F23  1  0.51495783  0.25000000  0.08398411  1
  F  F24  1  0.12141907  0.25000000  0.53332690  1
  F  F25  1  0.37858093  0.75000000  0.03332690  1
  F  F26  1  0.87858093  0.75000000  0.46667310  1
  F  F27  1  0.62141907  0.25000000  0.96667310  1
  F  F28  1  0.01096162  0.45102588  0.37695340  1
  F  F29  1  0.48903838  0.54897412  0.87695340  1
  F  F30  1  0.98903838  0.95102588  0.62304660  1
  F  F31  1  0.51096162  0.04897412  0.12304660  1
  F  F32  1  0.98903838  0.54897412  0.62304660  1
  F  F33  1  0.51096162  0.45102588  0.12304660  1
  F  F34  1  0.01096162  0.04897412  0.37695340  1
  F  F35  1  0.48903838  0.95102588  0.87695340  1
  F  F36  1  0.04224627  0.25000000  0.46602447  1
  F  F37  1  0.45775373  0.75000000  0.96602447  1
  F  F38  1  0.95775373  0.75000000  0.53397553  1
  F  F39  1  0.54224627  0.25000000  0.03397553  1
  F  F40  1  0.41621252  0.36447905  0.85165069  1
  F  F41  1  0.08378748  0.63552095  0.35165069  1
  F  F42  1  0.58378748  0.86447905  0.14834931  1
  F  F43  1  0.91621252  0.13552095  0.64834931  1
  F  F44  1  0.58378748  0.63552095  0.14834931  1
  F  F45  1  0.91621252  0.36447905  0.64834931  1
  F  F46  1  0.41621252  0.13552095  0.85165069  1
  F  F47  1  0.08378748  0.86447905  0.35165069  1
  F  F48  1  0.26703967  0.30920636  0.69029578  1
  F  F49  1  0.23296033  0.69079364  0.19029578  1
  F  F50  1  0.73296033  0.80920636  0.30970422  1
  F  F51  1  0.76703967  0.19079364  0.80970422  1
  F  F52  1  0.73296033  0.69079364  0.30970422  1
  F  F53  1  0.76703967  0.30920636  0.80970422  1
  F  F54  1  0.26703967  0.19079364  0.69029578  1
  F  F55  1  0.23296033  0.80920636  0.19029578  1
  F  F56  1  0.76239271  0.25000000  0.71069412  1
  F  F57  1  0.73760729  0.75000000  0.21069412  1
  F  F58  1  0.23760729  0.75000000  0.28930588  1
  F  F59  1  0.26239271  0.25000000  0.78930588  1
  F  F60  1  0.63538702  0.59145365  0.24958749  1
  F  F61  1  0.86461298  0.40854635  0.74958749  1
  F  F62  1  0.36461298  0.09145365  0.75041251  1
  F  F63  1  0.13538702  0.90854635  0.25041251  1
  F  F64  1  0.36461298  0.40854635  0.75041251  1
  F  F65  1  0.13538702  0.59145365  0.25041251  1
  F  F66  1  0.63538702  0.90854635  0.24958749  1
  F  F67  1  0.86461298  0.09145365  0.74958749  1
  Li  Li68  1  0.61985313  0.99779284  0.98405093  1
  Li  Li69  1  -0.11985313  -0.99779284  1.48405093  1
  Li  Li70  1  -0.61985313  1.49779284  -0.98405093  1
  Li  Li71  1  1.11985313  -0.49779284  -0.48405093  1
  Li  Li72  1  -0.61985313  -0.99779284  -0.98405093  1
  Li  Li73  1  1.11985313  0.99779284  -0.48405093  1
  Li  Li74  1  0.61985313  -0.49779284  0.98405093  1
  Li  Li75  1  -0.11985313  1.49779284  1.48405093  1
  Li  Li76  1  0.22676892  0.49207681  0.18221932  1
  Li  Li77  1  0.27323108  0.50792319  0.68221932  1
  Li  Li78  1  0.77323108  0.99207681  0.81778068  1
  Li  Li79  1  0.72676892  0.00792319  0.31778068  1
  Li  Li80  1  0.77323108  0.50792319  0.81778068  1
  Li  Li81  1  0.72676892  0.49207681  0.31778068  1
  Li  Li82  1  0.22676892  0.00792319  0.18221932  1
  Li  Li83  1  0.27323108  0.99207681  0.68221932  1
  Li  Li84  1  0.78659919  0.05422189  0.70775940  1
  Li  Li85  1  0.71340081  0.94577811  0.20775940  1
  Li  Li86  1  0.21340081  0.55422189  0.29224060  1
  Li  Li87  1  0.28659919  0.44577811  0.79224060  1
  Li  Li88  1  0.21340081  0.94577811  0.29224060  1
  Li  Li89  1  0.28659919  0.05422189  0.79224060  1
  Li  Li90  1  0.78659919  0.44577811  0.70775940  1
  Li  Li91  1  0.71340081  0.55422189  0.20775940  1
  Li  Li92  1  0.94725942  0.45272746  0.94849489  1
  Li  Li93  1  0.55274058  0.54727254  0.44849489  1
  Li  Li94  1  0.05274058  0.95272746  0.05150511  1
  Li  Li95  1  0.44725942  0.04727254  0.55150511  1
  Li  Li96  1  0.05274058  0.54727254  0.05150511  1
  Li  Li97  1  0.44725942  0.45272746  0.55150511  1
  Li  Li98  1  0.94725942  0.04727254  0.94849489  1
  Li  Li99  1  0.55274058  0.95272746  0.44849489  1
  Li  Li100  1  0.47382797  0.25000000  0.73389075  1
  Li  Li101  1  0.02617203  0.75000000  0.23389075  1
  Li  Li102  1  0.52617203  0.75000000  0.26610925  1
  Li  Li103  1  0.97382797  0.25000000  0.76610925  1
  Li  Li104  1  0.14571917  0.25000000  0.33788273  1
  Li  Li105  1  0.35428083  0.75000000  0.83788273  1
  Li  Li106  1  0.85428083  0.75000000  0.66211727  1
  Li  Li107  1  0.64571917  0.25000000  0.16211727  1
  Li  Li108  1  0.97710213  0.60217850  0.44374003  1
  Li  Li109  1  0.52289787  0.39782150  0.94374003  1
  Li  Li110  1  0.02289787  0.10217850  0.55625997  1
  Li  Li111  1  0.47710213  0.89782150  0.05625997  1
  Li  Li112  1  0.02289787  0.39782150  0.55625997  1
  Li  Li113  1  0.47710213  0.60217850  0.05625997  1
  Li  Li114  1  0.97710213  0.89782150  0.44374003  1
  Li  Li115  1  0.52289787  0.10217850  0.94374003  1
  Li  Li116  1  0.80882919  0.25000000  0.16642046  1
  Li  Li117  1  0.69117081  0.75000000  0.66642046  1
  Li  Li118  1  0.19117081  0.75000000  0.83357954  1
  Li  Li119  1  0.30882919  0.25000000  0.33357954  1
  Li  Li120  1  0.99616240  0.35971490  0.66727779  1
  Li  Li121  1  0.50383760  0.64028510  0.16727779  1
  Li  Li122  1  0.00383760  0.85971490  0.33272221  1
  Li  Li123  1  0.49616240  0.14028510  0.83272221  1
  Li  Li124  1  0.00383760  0.64028510  0.33272221  1
  Li  Li125  1  0.49616240  0.35971490  0.83272221  1
  Li  Li126  1  0.99616240  0.14028510  0.66727779  1
  Li  Li127  1  0.50383760  0.85971490  0.16727779  1
  Li  Li128  1  0.37928610  0.25000000  0.98258588  1
  Li  Li129  1  0.12071390  0.75000000  0.48258588  1
  Li  Li130  1  0.62071390  0.75000000  0.01741412  1
  Li  Li131  1  0.87928610  0.25000000  0.51741412  1
  Li  Li132  1  0.00000000  0.00000000  0.50000000  1
  Li  Li133  1  0.50000000  0.00000000  0.00000000  1
  Li  Li134  1  0.00000000  0.50000000  0.50000000  1
  Li  Li135  1  0.50000000  0.50000000  -0.00000000  1
