# generated using pymatgen
data_LiF
_symmetry_space_group_name_H-M   'P 1'
_cell_length_a   17.88260457
_cell_length_b   17.88260457
_cell_length_c   2.61570683
_cell_angle_alpha   90.00000000
_cell_angle_beta   90.00000000
_cell_angle_gamma   90.00000000
_symmetry_Int_Tables_number   1
_chemical_formula_structural   LiF
_chemical_formula_sum   'Li64 F64'
_cell_volume   836.47046945
_cell_formula_units_Z   64
loop_
 _symmetry_equiv_pos_site_id
 _symmetry_equiv_pos_as_xyz
  1  'x, y, z'
loop_
 _atom_site_type_symbol
 _atom_site_label
 _atom_site_symmetry_multiplicity
 _atom_site_fract_x
 _atom_site_fract_y
 _atom_site_fract_z
 _atom_site_occupancy
  F  F0  1  0.00000000  0.25000000  0.12500000  1
  F  F1  1  0.00000000  0.75000000  0.37500000  1
  F  F2  1  0.00000000  0.75000000  0.87500000  1
  F  F3  1  0.00000000  0.25000000  0.62500000  1
  F  F4  1  0.50000000  0.75000000  0.62500000  1
  F  F5  1  0.50000000  0.25000000  0.87500000  1
  F  F6  1  0.50000000  0.25000000  0.37500000  1
  F  F7  1  0.50000000  0.75000000  0.12500000  1
  F  F8  1  0.09865177  0.04941210  0.78363947  1
  F  F9  1  0.40134823  -0.04941210  1.28363947  1
  F  F10  1  0.20058790  0.84865177  1.03363947  1
  F  F11  1  0.29941210  0.15134823  1.53363947  1
  F  F12  1  0.40134823  0.04941210  -0.78363947  1
  F  F13  1  0.09865177  -0.04941210  -0.28363947  1
  F  F14  1  0.29941210  0.84865177  -0.03363947  1
  F  F15  1  0.20058790  0.15134823  -0.53363947  1
  F  F16  1  -0.09865177  -0.04941210  -0.78363947  1
  F  F17  1  0.59865177  0.04941210  -0.28363947  1
  F  F18  1  0.79941210  0.15134823  -0.03363947  1
  F  F19  1  0.70058790  0.84865177  -0.53363947  1
  F  F20  1  0.59865177  -0.04941210  0.78363947  1
  F  F21  1  -0.09865177  0.04941210  1.28363947  1
  F  F22  1  0.70058790  0.15134823  1.03363947  1
  F  F23  1  0.79941210  0.84865177  1.53363947  1
  F  F24  1  0.59865177  0.54941210  1.28363947  1
  F  F25  1  0.90134823  0.45058790  1.78363947  1
  F  F26  1  0.70058790  1.34865177  1.53363947  1
  F  F27  1  0.79941210  0.65134823  2.03363947  1
  F  F28  1  0.90134823  0.54941210  -0.28363947  1
  F  F29  1  0.59865177  0.45058790  0.21636053  1
  F  F30  1  0.79941210  1.34865177  0.46636053  1
  F  F31  1  0.70058790  0.65134823  -0.03363947  1
  F  F32  1  0.40134823  0.45058790  -0.28363947  1
  F  F33  1  1.09865177  0.54941210  0.21636053  1
  F  F34  1  1.29941210  0.65134823  0.46636053  1
  F  F35  1  1.20058790  1.34865177  -0.03363947  1
  F  F36  1  1.09865177  0.45058790  1.28363947  1
  F  F37  1  0.40134823  0.54941210  1.78363947  1
  F  F38  1  1.20058790  0.65134823  1.53363947  1
  F  F39  1  1.29941210  1.34865177  2.03363947  1
  F  F40  1  0.00000000  0.25000000  0.37500000  1
  F  F41  1  0.00000000  0.75000000  0.62500000  1
  F  F42  1  0.50000000  0.25000000  0.62500000  1
  F  F43  1  0.50000000  0.75000000  0.37500000  1
  F  F44  1  0.50000000  0.75000000  0.87500000  1
  F  F45  1  0.50000000  0.25000000  0.12500000  1
  F  F46  1  0.00000000  0.75000000  0.12500000  1
  F  F47  1  0.00000000  0.25000000  0.87500000  1
  F  F48  1  0.00000000  0.00000000  0.00000000  1
  F  F49  1  0.50000000  0.00000000  0.50000000  1
  F  F50  1  0.25000000  0.75000000  0.25000000  1
  F  F51  1  0.25000000  0.25000000  0.75000000  1
  F  F52  1  0.50000000  0.00000000  0.00000000  1
  F  F53  1  0.00000000  0.00000000  0.50000000  1
  F  F54  1  0.25000000  0.75000000  0.75000000  1
  F  F55  1  0.25000000  0.25000000  0.25000000  1
  F  F56  1  0.50000000  0.50000000  0.50000000  1
  F  F57  1  0.00000000  0.50000000  0.00000000  1
  F  F58  1  0.75000000  0.25000000  0.75000000  1
  F  F59  1  0.75000000  0.75000000  0.25000000  1
  F  F60  1  0.00000000  0.50000000  0.50000000  1
  F  F61  1  0.50000000  0.50000000  0.00000000  1
  F  F62  1  0.75000000  0.25000000  0.25000000  1
  F  F63  1  0.75000000  0.75000000  0.75000000  1
  Li  Li64  1  0.59979921  0.84979921  0.12500000  1
  Li  Li65  1  0.90020079  0.15020079  0.62500000  1
  Li  Li66  1  0.40020079  0.34979921  0.37500000  1
  Li  Li67  1  0.09979921  0.65020079  0.87500000  1
  Li  Li68  1  0.40020079  0.15020079  0.87500000  1
  Li  Li69  1  0.09979921  0.84979921  0.37500000  1
  Li  Li70  1  0.59979921  0.65020079  0.62500000  1
  Li  Li71  1  0.90020079  0.34979921  0.12500000  1
  Li  Li72  1  0.09979921  0.34979921  0.62500000  1
  Li  Li73  1  0.40020079  0.65020079  0.12500000  1
  Li  Li74  1  0.90020079  0.84979921  0.87500000  1
  Li  Li75  1  0.59979921  0.15020079  0.37500000  1
  Li  Li76  1  0.90020079  0.65020079  0.37500000  1
  Li  Li77  1  0.59979921  0.34979921  0.87500000  1
  Li  Li78  1  0.09979921  0.15020079  0.12500000  1
  Li  Li79  1  0.40020079  0.84979921  0.62500000  1
  Li  Li80  1  0.52289127  0.09538543  0.57143957  1
  Li  Li81  1  0.97710873  0.90461457  0.07143957  1
  Li  Li82  1  0.15461457  0.27289127  0.82143957  1
  Li  Li83  1  0.34538543  0.72710873  0.32143957  1
  Li  Li84  1  0.97710873  0.09538543  0.42856043  1
  Li  Li85  1  0.52289127  0.90461457  0.92856043  1
  Li  Li86  1  0.34538543  0.27289127  0.17856043  1
  Li  Li87  1  0.15461457  0.72710873  0.67856043  1
  Li  Li88  1  0.47710873  0.90461457  0.42856043  1
  Li  Li89  1  0.02289127  0.09538543  0.92856043  1
  Li  Li90  1  0.84538543  0.72710873  0.17856043  1
  Li  Li91  1  0.65461457  0.27289127  0.67856043  1
  Li  Li92  1  0.02289127  0.90461457  0.57143957  1
  Li  Li93  1  0.47710873  0.09538543  0.07143957  1
  Li  Li94  1  0.65461457  0.72710873  0.82143957  1
  Li  Li95  1  0.84538543  0.27289127  0.32143957  1
  Li  Li96  1  0.02289127  0.59538543  0.07143957  1
  Li  Li97  1  0.47710873  0.40461457  0.57143957  1
  Li  Li98  1  0.65461457  0.77289127  0.32143957  1
  Li  Li99  1  0.84538543  0.22710873  0.82143957  1
  Li  Li100  1  0.47710873  0.59538543  0.92856043  1
  Li  Li101  1  0.02289127  0.40461457  0.42856043  1
  Li  Li102  1  0.84538543  0.77289127  0.67856043  1
  Li  Li103  1  0.65461457  0.22710873  0.17856043  1
  Li  Li104  1  0.97710873  0.40461457  0.92856043  1
  Li  Li105  1  0.52289127  0.59538543  0.42856043  1
  Li  Li106  1  0.34538543  0.22710873  0.67856043  1
  Li  Li107  1  0.15461457  0.77289127  0.17856043  1
  Li  Li108  1  0.52289127  0.40461457  0.07143957  1
  Li  Li109  1  0.97710873  0.59538543  0.57143957  1
  Li  Li110  1  0.15461457  0.22710873  0.32143957  1
  Li  Li111  1  0.34538543  0.77289127  0.82143957  1
  Li  Li112  1  0.64141388  0.00000000  0.25000000  1
  Li  Li113  1  0.85858612  0.00000000  0.75000000  1
  Li  Li114  1  0.25000000  0.39141388  0.50000000  1
  Li  Li115  1  0.25000000  0.60858612  0.00000000  1
  Li  Li116  1  0.35858612  0.00000000  0.75000000  1
  Li  Li117  1  0.14141388  0.00000000  0.25000000  1
  Li  Li118  1  0.75000000  0.60858612  0.50000000  1
  Li  Li119  1  0.75000000  0.39141388  0.00000000  1
  Li  Li120  1  0.14141388  0.50000000  0.75000000  1
  Li  Li121  1  0.35858612  0.50000000  0.25000000  1
  Li  Li122  1  0.75000000  0.89141388  0.00000000  1
  Li  Li123  1  0.75000000  0.10858612  0.50000000  1
  Li  Li124  1  0.85858612  0.50000000  0.25000000  1
  Li  Li125  1  0.64141388  0.50000000  0.75000000  1
  Li  Li126  1  0.25000000  0.10858612  0.00000000  1
  Li  Li127  1  0.25000000  0.89141388  0.50000000  1
