# generated using pymatgen
data_LiF
_symmetry_space_group_name_H-M   'P 1'
_cell_length_a   9.82212269
_cell_length_b   9.82212269
_cell_length_c   8.63665960
_cell_angle_alpha   90.00000000
_cell_angle_beta   90.00000000
_cell_angle_gamma   120.00000000
_symmetry_Int_Tables_number   1
_chemical_formula_structural   LiF
_chemical_formula_sum   'Li28 F28'
_cell_volume   721.58441311
_cell_formula_units_Z   28
loop_
 _symmetry_equiv_pos_site_id
 _symmetry_equiv_pos_as_xyz
  1  'x, y, z'
loop_
 _atom_site_type_symbol
 _atom_site_label
 _atom_site_symmetry_multiplicity
 _atom_site_fract_x
 _atom_site_fract_y
 _atom_site_fract_z
 _atom_site_occupancy
  F  F0  1  0.92699134  0.55256664  0.05219741  1
  F  F1  1  -0.55256664  0.37442470  0.05219741  1
  F  F2  1  -0.37442470  -0.92699134  0.05219741  1
  F  F3  1  -0.92699134  -0.55256664  0.55219741  1
  F  F4  1  0.55256664  -0.37442470  0.55219741  1
  F  F5  1  0.37442470  0.92699134  0.55219741  1
  F  F6  1  -0.92699134  -0.55256664  -0.05219741  1
  F  F7  1  0.55256664  -0.37442470  -0.05219741  1
  F  F8  1  0.37442470  0.92699134  -0.05219741  1
  F  F9  1  0.92699134  0.55256664  0.44780259  1
  F  F10  1  -0.55256664  0.37442470  0.44780259  1
  F  F11  1  -0.37442470  -0.92699134  0.44780259  1
  F  F12  1  0.38153019  0.37025876  0.07247174  1
  F  F13  1  0.62974124  0.01127143  0.07247174  1
  F  F14  1  0.98872857  0.61846981  0.07247174  1
  F  F15  1  0.61846981  0.62974124  0.57247174  1
  F  F16  1  0.37025876  0.98872857  0.57247174  1
  F  F17  1  0.01127143  0.38153019  0.57247174  1
  F  F18  1  0.61846981  0.62974124  0.92752826  1
  F  F19  1  0.37025876  0.98872857  0.92752826  1
  F  F20  1  0.01127143  0.38153019  0.92752826  1
  F  F21  1  0.38153019  0.37025876  0.42752826  1
  F  F22  1  0.62974124  0.01127143  0.42752826  1
  F  F23  1  0.98872857  0.61846981  0.42752826  1
  F  F24  1  0.66666667  0.33333333  0.25000000  1
  F  F25  1  0.33333333  0.66666667  0.75000000  1
  F  F26  1  0.00000000  0.00000000  0.25000000  1
  F  F27  1  0.00000000  0.00000000  0.75000000  1
  Li  Li28  1  0.33333333  0.66666667  0.92127713  1
  Li  Li29  1  0.66666667  0.33333333  0.42127713  1
  Li  Li30  1  0.66666667  0.33333333  0.07872287  1
  Li  Li31  1  0.33333333  0.66666667  0.57872287  1
  Li  Li32  1  0.14372067  0.38095772  0.55109715  1
  Li  Li33  1  0.61904228  0.76276294  0.55109715  1
  Li  Li34  1  0.23723706  0.85627933  0.55109715  1
  Li  Li35  1  0.85627933  0.61904228  0.05109715  1
  Li  Li36  1  0.38095772  0.23723706  0.05109715  1
  Li  Li37  1  0.76276294  0.14372067  0.05109715  1
  Li  Li38  1  0.85627933  0.61904228  0.44890285  1
  Li  Li39  1  0.38095772  0.23723706  0.44890285  1
  Li  Li40  1  0.76276294  0.14372067  0.44890285  1
  Li  Li41  1  0.14372067  0.38095772  0.94890285  1
  Li  Li42  1  0.61904228  0.76276294  0.94890285  1
  Li  Li43  1  0.23723706  0.85627933  0.94890285  1
  Li  Li44  1  0.52249186  0.47347498  0.65723650  1
  Li  Li45  1  0.52652502  0.04901688  0.65723650  1
  Li  Li46  1  0.95098312  0.47750814  0.65723650  1
  Li  Li47  1  0.47750814  0.52652502  0.15723650  1
  Li  Li48  1  0.47347498  0.95098312  0.15723650  1
  Li  Li49  1  0.04901688  0.52249186  0.15723650  1
  Li  Li50  1  0.47750814  0.52652502  0.34276350  1
  Li  Li51  1  0.47347498  0.95098312  0.34276350  1
  Li  Li52  1  0.04901688  0.52249186  0.34276350  1
  Li  Li53  1  0.52249186  0.47347498  0.84276350  1
  Li  Li54  1  0.52652502  0.04901688  0.84276350  1
  Li  Li55  1  0.95098312  0.47750814  0.84276350  1
