# generated using pymatgen
data_Li2Si4Te3F12
_symmetry_space_group_name_H-M   'P 1'
_cell_length_a   11.21080945
_cell_length_b   8.66125328
_cell_length_c   9.52781416
_cell_angle_alpha   90.00000000
_cell_angle_beta   90.00000000
_cell_angle_gamma   90.00000000
_symmetry_Int_Tables_number   1
_chemical_formula_structural   Li2Si4Te3F12
_chemical_formula_sum   'Li8 Si16 Te12 F48'
_cell_volume   925.14751633
_cell_formula_units_Z   4
loop_
 _symmetry_equiv_pos_site_id
 _symmetry_equiv_pos_as_xyz
  1  'x, y, z'
loop_
 _atom_site_type_symbol
 _atom_site_label
 _atom_site_symmetry_multiplicity
 _atom_site_fract_x
 _atom_site_fract_y
 _atom_site_fract_z
 _atom_site_occupancy
  F  F0  1  0.50438245  0.28395706  0.43109686  1
  F  F1  1  0.49561755  0.71604294  0.43109686  1
  F  F2  1  0.99561755  0.78395706  0.06890314  1
  F  F3  1  0.00438245  0.21604294  0.06890314  1
  F  F4  1  0.49561755  0.71604294  0.56890314  1
  F  F5  1  0.50438245  0.28395706  0.56890314  1
  F  F6  1  0.00438245  0.21604294  0.93109686  1
  F  F7  1  0.99561755  0.78395706  0.93109686  1
  F  F8  1  0.00000000  0.00000000  0.00000000  1
  F  F9  1  0.50000000  0.50000000  0.50000000  1
  F  F10  1  0.69845211  0.75107396  0.45334710  1
  F  F11  1  0.30154789  0.24892604  0.45334710  1
  F  F12  1  0.80154789  0.25107396  0.04665290  1
  F  F13  1  0.19845211  0.74892604  0.04665290  1
  F  F14  1  0.30154789  0.24892604  0.54665290  1
  F  F15  1  0.69845211  0.75107396  0.54665290  1
  F  F16  1  0.19845211  0.74892604  0.95334710  1
  F  F17  1  0.80154789  0.25107396  0.95334710  1
  F  F18  1  0.84804974  0.71693694  0.74709134  1
  F  F19  1  0.15195026  0.28306306  0.74709134  1
  F  F20  1  0.65195026  0.21693694  0.75290866  1
  F  F21  1  0.34804974  0.78306306  0.75290866  1
  F  F22  1  0.15195026  0.28306306  0.25290866  1
  F  F23  1  0.84804974  0.71693694  0.25290866  1
  F  F24  1  0.34804974  0.78306306  0.24709134  1
  F  F25  1  0.65195026  0.21693694  0.24709134  1
  F  F26  1  0.89210222  0.15473615  0.10287010  1
  F  F27  1  0.10789778  0.84526385  0.10287010  1
  F  F28  1  0.60789778  0.65473615  0.39712990  1
  F  F29  1  0.39210222  0.34526385  0.39712990  1
  F  F30  1  0.10789778  0.84526385  0.89712990  1
  F  F31  1  0.89210222  0.15473615  0.89712990  1
  F  F32  1  0.39210222  0.34526385  0.60287010  1
  F  F33  1  0.60789778  0.65473615  0.60287010  1
  F  F34  1  0.87373685  0.87429056  -0.00000000  1
  F  F35  1  0.12626315  0.12570944  0.00000000  1
  F  F36  1  0.62626315  0.37429056  0.50000000  1
  F  F37  1  0.37373685  0.62570944  0.50000000  1
  F  F38  1  0.07563571  0.16540730  0.83969337  1
  F  F39  1  0.92436429  0.83459270  0.83969337  1
  F  F40  1  0.42436429  0.66540730  0.66030663  1
  F  F41  1  0.57563571  0.33459270  0.66030663  1
  F  F42  1  0.92436429  0.83459270  0.16030663  1
  F  F43  1  0.07563571  0.16540730  0.16030663  1
  F  F44  1  0.57563571  0.33459270  0.33969337  1
  F  F45  1  0.42436429  0.66540730  0.33969337  1
  F  F46  1  0.00000000  0.00000000  0.50000000  1
  F  F47  1  0.50000000  0.50000000  0.00000000  1
  Li  Li48  1  0.36331346  0.13648491  0.83583137  1
  Li  Li49  1  0.63668654  0.86351509  0.83583137  1
  Li  Li50  1  0.13668654  0.63648491  0.66416863  1
  Li  Li51  1  0.86331346  0.36351509  0.66416863  1
  Li  Li52  1  0.63668654  0.86351509  0.16416863  1
  Li  Li53  1  0.36331346  0.13648491  0.16416863  1
  Li  Li54  1  0.86331346  0.36351509  0.33583137  1
  Li  Li55  1  0.13668654  0.63648491  0.33583137  1
  Si  Si56  1  0.81247198  0.96048177  0.92348210  1
  Si  Si57  1  0.18752802  0.03951823  0.92348210  1
  Si  Si58  1  0.68752802  0.46048177  0.57651790  1
  Si  Si59  1  0.31247198  0.53951823  0.57651790  1
  Si  Si60  1  0.18752802  0.03951823  0.07651790  1
  Si  Si61  1  0.81247198  0.96048177  0.07651790  1
  Si  Si62  1  0.31247198  0.53951823  0.42348210  1
  Si  Si63  1  0.68752802  0.46048177  0.42348210  1
  Si  Si64  1  0.00000000  0.00000000  0.87212416  1
  Si  Si65  1  0.50000000  0.50000000  0.62787584  1
  Si  Si66  1  0.00000000  0.00000000  0.12787584  1
  Si  Si67  1  0.50000000  0.50000000  0.37212416  1
  Si  Si68  1  0.00000000  0.50000000  0.73490723  1
  Si  Si69  1  0.50000000  0.00000000  0.76509277  1
  Si  Si70  1  0.00000000  0.50000000  0.26509277  1
  Si  Si71  1  0.50000000  0.00000000  0.23490723  1
  Te  Te72  1  0.89848277  0.80715082  0.29011148  1
  Te  Te73  1  -0.89848277  -0.80715082  0.29011148  1
  Te  Te74  1  -0.39848277  1.30715082  0.20988852  1
  Te  Te75  1  1.39848277  -0.30715082  0.20988852  1
  Te  Te76  1  -0.89848277  -0.80715082  -0.29011148  1
  Te  Te77  1  0.89848277  0.80715082  -0.29011148  1
  Te  Te78  1  1.39848277  -0.30715082  0.79011148  1
  Te  Te79  1  -0.39848277  1.30715082  0.79011148  1
  Te  Te80  1  0.00000000  0.50000000  0.50000000  1
  Te  Te81  1  0.50000000  0.00000000  -0.00000000  1
  Te  Te82  1  0.00000000  0.50000000  0.00000000  1
  Te  Te83  1  0.50000000  0.00000000  0.50000000  1
