# generated using pymatgen
data_LiSb2PSe
_symmetry_space_group_name_H-M   'P 1'
_cell_length_a   4.48580759
_cell_length_b   4.62385802
_cell_length_c   5.81873400
_cell_angle_alpha   94.66045655
_cell_angle_beta   96.17703073
_cell_angle_gamma   102.48930995
_symmetry_Int_Tables_number   1
_chemical_formula_structural   LiSb2PSe
_chemical_formula_sum   'Li1 Sb2 P1 Se1'
_cell_volume   116.46940600
_cell_formula_units_Z   1
loop_
 _symmetry_equiv_pos_site_id
 _symmetry_equiv_pos_as_xyz
  1  'x, y, z'
loop_
 _atom_site_type_symbol
 _atom_site_label
 _atom_site_symmetry_multiplicity
 _atom_site_fract_x
 _atom_site_fract_y
 _atom_site_fract_z
 _atom_site_occupancy
  P  P0  1  0.00000000  0.00000000  0.00000000  1
  Sb  Sb1  1  0.50000000  0.50000000  0.50000000  1
  Sb  Sb2  1  0.50000000  0.50000000  0.00000000  1
  Se  Se3  1  0.50000000  0.00000000  0.50000000  1
  Li  Li4  1  0.00000000  0.50000000  0.50000000  1
