# generated using pymatgen
data_Li2Y2As4P2Se
_symmetry_space_group_name_H-M   'P 1'
_cell_length_a   5.52329147
_cell_length_b   5.65308434
_cell_length_c   6.78008410
_cell_angle_alpha   93.28386957
_cell_angle_beta   96.04298604
_cell_angle_gamma   101.40068163
_symmetry_Int_Tables_number   1
_chemical_formula_structural   Li2Y2As4P2Se
_chemical_formula_sum   'Li2 Y2 As4 P2 Se1'
_cell_volume   205.70537394
_cell_formula_units_Z   1
loop_
 _symmetry_equiv_pos_site_id
 _symmetry_equiv_pos_as_xyz
  1  'x, y, z'
loop_
 _atom_site_type_symbol
 _atom_site_label
 _atom_site_symmetry_multiplicity
 _atom_site_fract_x
 _atom_site_fract_y
 _atom_site_fract_z
 _atom_site_occupancy
  Se  Se0  1  0.00000000  0.00000000  0.00000000  1
  P  P1  1  0.50000000  0.50000000  0.50000000  1
  P  P2  1  0.25000000  0.25000000  0.25000000  1
  As  As3  1  0.75000000  0.25000000  0.00000000  1
  As  As4  1  0.25000000  0.75000000  0.50000000  1
  As  As5  1  0.89095560  0.16280212  0.80185051  1
  As  As6  1  0.25565439  0.61423111  0.26932818  1
  Li  Li7  1  0.08179492  0.40647513  0.39204385  1
  Li  Li8  1  0.64668507  0.72224438  0.78650395  1
  Y  Y9  1  0.56023982  0.01536338  0.53169238  1
  Y  Y10  1  0.89919466  0.59736964  0.68429172  1
