# generated using pymatgen
data_Li2Y2Te4MoP3
_symmetry_space_group_name_H-M   'P 1'
_cell_length_a   4.37375649
_cell_length_b   4.66089902
_cell_length_c   6.84551055
_cell_angle_alpha   96.04904207
_cell_angle_beta   103.17355605
_cell_angle_gamma   114.29659783
_symmetry_Int_Tables_number   1
_chemical_formula_structural   Li2Y2Te4MoP3
_chemical_formula_sum   'Li2 Y2 Te4 Mo1 P3'
_cell_volume   120.68405581
_cell_formula_units_Z   1
loop_
 _symmetry_equiv_pos_site_id
 _symmetry_equiv_pos_as_xyz
  1  'x, y, z'
loop_
 _atom_site_type_symbol
 _atom_site_label
 _atom_site_symmetry_multiplicity
 _atom_site_fract_x
 _atom_site_fract_y
 _atom_site_fract_z
 _atom_site_occupancy
  Y  Y0  1  0.00000000  0.00000000  0.00000000  1
  Y  Y1  1  0.50000000  0.50000000  0.50000000  1
  P  P2  1  0.50000000  0.50000000  0.00000000  1
  P  P3  1  0.50000000  0.00000000  0.50000000  1
  P  P4  1  0.00000000  0.50000000  0.50000000  1
  Mo  Mo5  1  0.90592561  0.17611109  0.42704560  1
  Li  Li6  1  0.63561782  0.17376917  0.91905490  1
  Li  Li7  1  0.29377015  0.37598968  0.02164920  1
  Te  Te8  1  0.52586872  0.49823071  0.34019993  1
  Te  Te9  1  0.38243656  0.23478820  0.44752248  1
  Te  Te10  1  0.38753869  0.37642675  0.13482058  1
  Te  Te11  1  0.25862518  0.17141385  0.93677564  1
