# generated using pymatgen
data_Li2Y2Cu3P2Se
_symmetry_space_group_name_H-M   'P 1'
_cell_length_a   5.21930312
_cell_length_b   5.46413740
_cell_length_c   6.78740511
_cell_angle_alpha   94.25552355
_cell_angle_beta   97.82158098
_cell_angle_gamma   103.61188614
_symmetry_Int_Tables_number   1
_chemical_formula_structural   Li2Y2Cu3P2Se
_chemical_formula_sum   'Li2 Y2 Cu3 P2 Se1'
_cell_volume   185.24487494
_cell_formula_units_Z   1
loop_
 _symmetry_equiv_pos_site_id
 _symmetry_equiv_pos_as_xyz
  1  'x, y, z'
loop_
 _atom_site_type_symbol
 _atom_site_label
 _atom_site_symmetry_multiplicity
 _atom_site_fract_x
 _atom_site_fract_y
 _atom_site_fract_z
 _atom_site_occupancy
  Se  Se0  1  0.00000000  0.00000000  0.00000000  1
  Cu  Cu1  1  0.50000000  0.50000000  0.50000000  1
  Cu  Cu2  1  0.25000000  0.25000000  0.25000000  1
  Cu  Cu3  1  0.75000000  0.25000000  0.00000000  1
  Y  Y4  1  0.25000000  0.75000000  0.50000000  1
  Y  Y5  1  0.36373232  0.13415984  0.45346786  1
  P  P6  1  0.61250983  0.88836950  0.68884669  1
  P  P7  1  0.13628372  0.25535738  0.41570736  1
  Li  Li8  1  0.92837197  0.75309215  0.01414745  1
  Li  Li9  1  0.05680677  0.61251938  0.45620970  1
