# generated using pymatgen
data_LiF
_symmetry_space_group_name_H-M   'P 1'
_cell_length_a   14.69051516
_cell_length_b   14.69051516
_cell_length_c   3.22271726
_cell_angle_alpha   90.00000000
_cell_angle_beta   90.00000000
_cell_angle_gamma   120.00000000
_symmetry_Int_Tables_number   1
_chemical_formula_structural   LiF
_chemical_formula_sum   'Li20 F20'
_cell_volume   602.31945105
_cell_formula_units_Z   20
loop_
 _symmetry_equiv_pos_site_id
 _symmetry_equiv_pos_as_xyz
  1  'x, y, z'
loop_
 _atom_site_type_symbol
 _atom_site_label
 _atom_site_symmetry_multiplicity
 _atom_site_fract_x
 _atom_site_fract_y
 _atom_site_fract_z
 _atom_site_occupancy
  F  F0  1  0.84972644  0.58485863  0.50000000  1
  F  F1  1  0.41514137  0.26486781  0.50000000  1
  F  F2  1  0.73513219  0.15027356  0.50000000  1
  F  F3  1  0.58485863  0.84972644  0.50000000  1
  F  F4  1  0.26486781  0.41514137  0.50000000  1
  F  F5  1  0.15027356  0.73513219  0.50000000  1
  F  F6  1  0.50929772  0.86349805  0.70266246  1
  F  F7  1  -0.86349805  -0.35420033  0.70266246  1
  F  F8  1  0.35420033  -0.50929772  0.70266246  1
  F  F9  1  0.50929772  0.86349805  -0.70266246  1
  F  F10  1  -0.86349805  -0.35420033  -0.70266246  1
  F  F11  1  0.35420033  -0.50929772  -0.70266246  1
  F  F12  1  0.86349805  0.50929772  -0.70266246  1
  F  F13  1  -0.35420033  -0.86349805  -0.70266246  1
  F  F14  1  -0.50929772  0.35420033  -0.70266246  1
  F  F15  1  0.86349805  0.50929772  0.70266246  1
  F  F16  1  -0.35420033  -0.86349805  0.70266246  1
  F  F17  1  -0.50929772  0.35420033  0.70266246  1
  F  F18  1  0.33333333  0.66666667  0.00000000  1
  F  F19  1  0.66666667  0.33333333  0.00000000  1
  Li  Li20  1  0.58830672  0.23206918  0.50000000  1
  Li  Li21  1  0.76793082  0.35623754  0.50000000  1
  Li  Li22  1  0.64376246  0.41169328  0.50000000  1
  Li  Li23  1  0.23206918  0.58830672  0.50000000  1
  Li  Li24  1  0.35623754  0.76793082  0.50000000  1
  Li  Li25  1  0.41169328  0.64376246  0.50000000  1
  Li  Li26  1  0.40070064  -0.00000000  0.50000000  1
  Li  Li27  1  0.00000000  0.40070064  0.50000000  1
  Li  Li28  1  0.59929936  0.59929936  0.50000000  1
  Li  Li29  1  0.79214343  -0.00000000  0.50000000  1
  Li  Li30  1  0.00000000  0.79214343  0.50000000  1
  Li  Li31  1  0.20785657  0.20785657  0.50000000  1
  Li  Li32  1  0.00000000  0.00000000  0.00000000  1
  Li  Li33  1  0.38122086  0.09536581  0.50000000  1
  Li  Li34  1  0.90463419  0.28585505  0.50000000  1
  Li  Li35  1  0.71414495  0.61877914  0.50000000  1
  Li  Li36  1  0.09536581  0.38122086  0.50000000  1
  Li  Li37  1  0.28585505  0.90463419  0.50000000  1
  Li  Li38  1  0.61877914  0.71414495  0.50000000  1
  Li  Li39  1  0.00000000  0.00000000  0.50000000  1
