# generated using pymatgen
data_LiF
_symmetry_space_group_name_H-M   'P 1'
_cell_length_a   10.66044765
_cell_length_b   10.66044765
_cell_length_c   6.82565327
_cell_angle_alpha   90.00000000
_cell_angle_beta   90.00000000
_cell_angle_gamma   90.00000000
_symmetry_Int_Tables_number   1
_chemical_formula_structural   LiF
_chemical_formula_sum   'Li24 F24'
_cell_volume   775.70234882
_cell_formula_units_Z   24
loop_
 _symmetry_equiv_pos_site_id
 _symmetry_equiv_pos_as_xyz
  1  'x, y, z'
loop_
 _atom_site_type_symbol
 _atom_site_label
 _atom_site_symmetry_multiplicity
 _atom_site_fract_x
 _atom_site_fract_y
 _atom_site_fract_z
 _atom_site_occupancy
  F  F0  1  0.00000000  0.25000000  0.69901656  1
  F  F1  1  0.00000000  0.75000000  0.94901656  1
  F  F2  1  0.50000000  0.25000000  0.80098344  1
  F  F3  1  0.50000000  0.75000000  0.55098344  1
  F  F4  1  0.50000000  0.75000000  0.19901656  1
  F  F5  1  0.50000000  0.25000000  0.44901656  1
  F  F6  1  0.00000000  0.75000000  0.30098344  1
  F  F7  1  0.00000000  0.25000000  0.05098344  1
  F  F8  1  0.25706640  0.50706640  0.87500000  1
  F  F9  1  0.24293360  0.49293360  0.37500000  1
  F  F10  1  -0.25706640  1.00706640  0.12500000  1
  F  F11  1  0.75706640  -0.00706640  0.62500000  1
  F  F12  1  -0.25706640  0.49293360  0.12500000  1
  F  F13  1  0.75706640  0.50706640  0.62500000  1
  F  F14  1  0.25706640  -0.00706640  0.87500000  1
  F  F15  1  0.24293360  1.00706640  0.37500000  1
  F  F16  1  0.75706640  1.00706640  1.37500000  1
  F  F17  1  0.74293360  0.99293360  0.87500000  1
  F  F18  1  0.24293360  1.50706640  0.62500000  1
  F  F19  1  1.25706640  0.49293360  1.12500000  1
  F  F20  1  0.24293360  0.99293360  0.62500000  1
  F  F21  1  1.25706640  1.00706640  1.12500000  1
  F  F22  1  0.75706640  0.49293360  1.37500000  1
  F  F23  1  0.74293360  1.50706640  0.87500000  1
  Li  Li24  1  0.00000000  0.25000000  0.37500000  1
  Li  Li25  1  0.00000000  0.75000000  0.62500000  1
  Li  Li26  1  0.50000000  0.75000000  0.87500000  1
  Li  Li27  1  0.50000000  0.25000000  0.12500000  1
  Li  Li28  1  0.59362242  0.00000000  0.00000000  1
  Li  Li29  1  0.90637758  -0.00000000  0.50000000  1
  Li  Li30  1  0.25000000  0.34362242  0.25000000  1
  Li  Li31  1  0.25000000  0.65637758  0.75000000  1
  Li  Li32  1  0.40637758  0.00000000  0.00000000  1
  Li  Li33  1  0.09362242  -0.00000000  0.50000000  1
  Li  Li34  1  0.75000000  0.65637758  0.75000000  1
  Li  Li35  1  0.75000000  0.34362242  0.25000000  1
  Li  Li36  1  0.09362242  0.50000000  0.50000000  1
  Li  Li37  1  0.40637758  0.50000000  0.00000000  1
  Li  Li38  1  0.75000000  0.84362242  0.75000000  1
  Li  Li39  1  0.75000000  0.15637758  0.25000000  1
  Li  Li40  1  0.90637758  0.50000000  0.50000000  1
  Li  Li41  1  0.59362242  0.50000000  0.00000000  1
  Li  Li42  1  0.25000000  0.15637758  0.25000000  1
  Li  Li43  1  0.25000000  0.84362242  0.75000000  1
  Li  Li44  1  0.00000000  0.75000000  0.12500000  1
  Li  Li45  1  0.50000000  0.75000000  0.37500000  1
  Li  Li46  1  0.50000000  0.25000000  0.62500000  1
  Li  Li47  1  0.00000000  0.25000000  0.87500000  1
