# generated using pymatgen
data_Li4TeF2
_symmetry_space_group_name_H-M   'P 1'
_cell_length_a   10.67394534
_cell_length_b   10.67394534
_cell_length_c   21.81806004
_cell_angle_alpha   90.00000000
_cell_angle_beta   90.00000000
_cell_angle_gamma   90.00000000
_symmetry_Int_Tables_number   1
_chemical_formula_structural   Li4TeF2
_chemical_formula_sum   'Li96 Te24 F48'
_cell_volume   2485.79941478
_cell_formula_units_Z   24
loop_
 _symmetry_equiv_pos_site_id
 _symmetry_equiv_pos_as_xyz
  1  'x, y, z'
loop_
 _atom_site_type_symbol
 _atom_site_label
 _atom_site_symmetry_multiplicity
 _atom_site_fract_x
 _atom_site_fract_y
 _atom_site_fract_z
 _atom_site_occupancy
  F  F0  1  0.72349278  0.00000000  0.50000000  1
  F  F1  1  0.27650722  0.00000000  0.50000000  1
  F  F2  1  0.00000000  0.72349278  0.50000000  1
  F  F3  1  0.00000000  0.27650722  0.50000000  1
  F  F4  1  0.07267749  0.34329129  -0.00000000  1
  F  F5  1  0.92732251  0.65670871  0.00000000  1
  F  F6  1  0.65670871  0.07267749  -0.00000000  1
  F  F7  1  0.34329129  0.92732251  0.00000000  1
  F  F8  1  0.92732251  0.34329129  -0.00000000  1
  F  F9  1  0.07267749  0.65670871  0.00000000  1
  F  F10  1  0.34329129  0.07267749  -0.00000000  1
  F  F11  1  0.65670871  0.92732251  0.00000000  1
  F  F12  1  0.33995069  0.00000000  0.81021566  1
  F  F13  1  0.66004931  0.00000000  0.81021566  1
  F  F14  1  0.00000000  0.33995069  0.81021566  1
  F  F15  1  0.00000000  0.66004931  0.81021566  1
  F  F16  1  0.66004931  0.00000000  0.18978434  1
  F  F17  1  0.33995069  0.00000000  0.18978434  1
  F  F18  1  0.00000000  0.33995069  0.18978434  1
  F  F19  1  0.00000000  0.66004931  0.18978434  1
  F  F20  1  0.84127690  0.50000000  0.50000000  1
  F  F21  1  0.15872310  0.50000000  0.50000000  1
  F  F22  1  0.50000000  0.84127690  0.50000000  1
  F  F23  1  0.50000000  0.15872310  0.50000000  1
  F  F24  1  0.63544458  0.79372428  0.06896616  1
  F  F25  1  -0.63544458  -0.79372428  0.06896616  1
  F  F26  1  -0.79372428  0.63544458  0.06896616  1
  F  F27  1  0.79372428  -0.63544458  0.06896616  1
  F  F28  1  -0.63544458  0.79372428  -0.06896616  1
  F  F29  1  0.63544458  -0.79372428  -0.06896616  1
  F  F30  1  0.79372428  0.63544458  -0.06896616  1
  F  F31  1  -0.79372428  -0.63544458  -0.06896616  1
  F  F32  1  -0.63544458  -0.79372428  -0.06896616  1
  F  F33  1  0.63544458  0.79372428  -0.06896616  1
  F  F34  1  0.79372428  -0.63544458  -0.06896616  1
  F  F35  1  -0.79372428  0.63544458  -0.06896616  1
  F  F36  1  0.63544458  -0.79372428  0.06896616  1
  F  F37  1  -0.63544458  0.79372428  0.06896616  1
  F  F38  1  -0.79372428  -0.63544458  0.06896616  1
  F  F39  1  0.79372428  0.63544458  0.06896616  1
  F  F40  1  0.00000000  0.50000000  0.00000000  1
  F  F41  1  0.50000000  0.00000000  0.00000000  1
  F  F42  1  0.81872289  0.81872289  0.00000000  1
  F  F43  1  0.18127711  0.18127711  -0.00000000  1
  F  F44  1  0.18127711  0.81872289  0.00000000  1
  F  F45  1  0.81872289  0.18127711  0.00000000  1
  F  F46  1  0.00000000  0.00000000  0.50000000  1
  F  F47  1  0.00000000  0.00000000  0.00000000  1
  Li  Li48  1  0.41498971  0.41498971  0.24923057  1
  Li  Li49  1  0.58501029  0.58501029  0.24923057  1
  Li  Li50  1  0.58501029  0.41498971  0.24923057  1
  Li  Li51  1  0.41498971  0.58501029  0.24923057  1
  Li  Li52  1  0.58501029  0.41498971  0.75076943  1
  Li  Li53  1  0.41498971  0.58501029  0.75076943  1
  Li  Li54  1  0.41498971  0.41498971  0.75076943  1
  Li  Li55  1  0.58501029  0.58501029  0.75076943  1
  Li  Li56  1  0.19212191  0.50000000  0.94892939  1
  Li  Li57  1  0.80787809  0.50000000  0.94892939  1
  Li  Li58  1  0.50000000  0.19212191  0.94892939  1
  Li  Li59  1  0.50000000  0.80787809  0.94892939  1
  Li  Li60  1  0.80787809  0.50000000  0.05107061  1
  Li  Li61  1  0.19212191  0.50000000  0.05107061  1
  Li  Li62  1  0.50000000  0.19212191  0.05107061  1
  Li  Li63  1  0.50000000  0.80787809  0.05107061  1
  Li  Li64  1  0.89389070  0.89389070  0.35208338  1
  Li  Li65  1  0.10610930  0.10610930  0.35208338  1
  Li  Li66  1  0.10610930  0.89389070  0.35208338  1
  Li  Li67  1  0.89389070  0.10610930  0.35208338  1
  Li  Li68  1  0.10610930  0.89389070  0.64791662  1
  Li  Li69  1  0.89389070  0.10610930  0.64791662  1
  Li  Li70  1  0.89389070  0.89389070  0.64791662  1
  Li  Li71  1  0.10610930  0.10610930  0.64791662  1
  Li  Li72  1  0.36802800  0.50000000  0.03375998  1
  Li  Li73  1  0.63197200  0.50000000  0.03375998  1
  Li  Li74  1  0.50000000  0.36802800  0.03375998  1
  Li  Li75  1  0.50000000  0.63197200  0.03375998  1
  Li  Li76  1  0.63197200  0.50000000  0.96624002  1
  Li  Li77  1  0.36802800  0.50000000  0.96624002  1
  Li  Li78  1  0.50000000  0.36802800  0.96624002  1
  Li  Li79  1  0.50000000  0.63197200  0.96624002  1
  Li  Li80  1  0.60957877  0.92283035  0.31827608  1
  Li  Li81  1  0.39042123  0.07716965  0.31827608  1
  Li  Li82  1  0.07716965  0.60957877  0.31827608  1
  Li  Li83  1  0.92283035  0.39042123  0.31827608  1
  Li  Li84  1  0.39042123  0.92283035  0.68172392  1
  Li  Li85  1  0.60957877  0.07716965  0.68172392  1
  Li  Li86  1  0.92283035  0.60957877  0.68172392  1
  Li  Li87  1  0.07716965  0.39042123  0.68172392  1
  Li  Li88  1  0.39042123  0.07716965  0.68172392  1
  Li  Li89  1  0.60957877  0.92283035  0.68172392  1
  Li  Li90  1  0.92283035  0.39042123  0.68172392  1
  Li  Li91  1  0.07716965  0.60957877  0.68172392  1
  Li  Li92  1  0.60957877  0.07716965  0.31827608  1
  Li  Li93  1  0.39042123  0.92283035  0.31827608  1
  Li  Li94  1  0.07716965  0.39042123  0.31827608  1
  Li  Li95  1  0.92283035  0.60957877  0.31827608  1
  Li  Li96  1  0.29465517  0.50000000  0.59985319  1
  Li  Li97  1  0.70534483  0.50000000  0.59985319  1
  Li  Li98  1  0.50000000  0.29465517  0.59985319  1
  Li  Li99  1  0.50000000  0.70534483  0.59985319  1
  Li  Li100  1  0.70534483  0.50000000  0.40014681  1
  Li  Li101  1  0.29465517  0.50000000  0.40014681  1
  Li  Li102  1  0.50000000  0.29465517  0.40014681  1
  Li  Li103  1  0.50000000  0.70534483  0.40014681  1
  Li  Li104  1  0.22425569  0.60148779  0.22133681  1
  Li  Li105  1  0.77574431  0.39851221  0.22133681  1
  Li  Li106  1  0.39851221  0.22425569  0.22133681  1
  Li  Li107  1  0.60148779  0.77574431  0.22133681  1
  Li  Li108  1  0.77574431  0.60148779  0.77866319  1
  Li  Li109  1  0.22425569  0.39851221  0.77866319  1
  Li  Li110  1  0.60148779  0.22425569  0.77866319  1
  Li  Li111  1  0.39851221  0.77574431  0.77866319  1
  Li  Li112  1  0.77574431  0.39851221  0.77866319  1
  Li  Li113  1  0.22425569  0.60148779  0.77866319  1
  Li  Li114  1  0.60148779  0.77574431  0.77866319  1
  Li  Li115  1  0.39851221  0.22425569  0.77866319  1
  Li  Li116  1  0.22425569  0.39851221  0.22133681  1
  Li  Li117  1  0.77574431  0.60148779  0.22133681  1
  Li  Li118  1  0.39851221  0.77574431  0.22133681  1
  Li  Li119  1  0.60148779  0.22425569  0.22133681  1
  Li  Li120  1  0.31791022  0.31791022  0.91538459  1
  Li  Li121  1  0.68208978  0.68208978  0.91538459  1
  Li  Li122  1  0.68208978  0.31791022  0.91538459  1
  Li  Li123  1  0.31791022  0.68208978  0.91538459  1
  Li  Li124  1  0.68208978  0.31791022  0.08461541  1
  Li  Li125  1  0.31791022  0.68208978  0.08461541  1
  Li  Li126  1  0.31791022  0.31791022  0.08461541  1
  Li  Li127  1  0.68208978  0.68208978  0.08461541  1
  Li  Li128  1  0.56748670  0.26688468  0.67567945  1
  Li  Li129  1  0.43251330  0.73311532  0.67567945  1
  Li  Li130  1  0.73311532  0.56748670  0.67567945  1
  Li  Li131  1  0.26688468  0.43251330  0.67567945  1
  Li  Li132  1  0.43251330  0.26688468  0.32432055  1
  Li  Li133  1  0.56748670  0.73311532  0.32432055  1
  Li  Li134  1  0.26688468  0.56748670  0.32432055  1
  Li  Li135  1  0.73311532  0.43251330  0.32432055  1
  Li  Li136  1  0.43251330  0.73311532  0.32432055  1
  Li  Li137  1  0.56748670  0.26688468  0.32432055  1
  Li  Li138  1  0.26688468  0.43251330  0.32432055  1
  Li  Li139  1  0.73311532  0.56748670  0.32432055  1
  Li  Li140  1  0.56748670  0.73311532  0.67567945  1
  Li  Li141  1  0.43251330  0.26688468  0.67567945  1
  Li  Li142  1  0.73311532  0.43251330  0.67567945  1
  Li  Li143  1  0.26688468  0.56748670  0.67567945  1
  Te  Te144  1  0.00000000  0.00000000  0.91722810  1
  Te  Te145  1  0.00000000  0.00000000  0.08277190  1
  Te  Te146  1  0.85693082  0.71943369  0.16555177  1
  Te  Te147  1  0.14306918  0.28056631  0.16555177  1
  Te  Te148  1  0.28056631  0.85693082  0.16555177  1
  Te  Te149  1  0.71943369  0.14306918  0.16555177  1
  Te  Te150  1  0.14306918  0.71943369  0.83444823  1
  Te  Te151  1  0.85693082  0.28056631  0.83444823  1
  Te  Te152  1  0.71943369  0.85693082  0.83444823  1
  Te  Te153  1  0.28056631  0.14306918  0.83444823  1
  Te  Te154  1  0.14306918  0.28056631  0.83444823  1
  Te  Te155  1  0.85693082  0.71943369  0.83444823  1
  Te  Te156  1  0.71943369  0.14306918  0.83444823  1
  Te  Te157  1  0.28056631  0.85693082  0.83444823  1
  Te  Te158  1  0.85693082  0.28056631  0.16555177  1
  Te  Te159  1  0.14306918  0.71943369  0.16555177  1
  Te  Te160  1  0.28056631  0.14306918  0.16555177  1
  Te  Te161  1  0.71943369  0.85693082  0.16555177  1
  Te  Te162  1  0.50000000  0.50000000  0.50000000  1
  Te  Te163  1  0.00000000  0.50000000  0.77553569  1
  Te  Te164  1  0.50000000  0.00000000  0.77553569  1
  Te  Te165  1  0.00000000  0.50000000  0.22446431  1
  Te  Te166  1  0.50000000  0.00000000  0.22446431  1
  Te  Te167  1  0.50000000  0.50000000  0.00000000  1
