# generated using pymatgen
data_Li3Y2MoP3Se2
_symmetry_space_group_name_H-M   'P 1'
_cell_length_a   5.34622271
_cell_length_b   5.67766349
_cell_length_c   7.31426531
_cell_angle_alpha   94.12331961
_cell_angle_beta   98.97973288
_cell_angle_gamma   106.56173608
_symmetry_Int_Tables_number   1
_chemical_formula_structural   Li3Y2MoP3Se2
_chemical_formula_sum   'Li3 Y2 Mo1 P3 Se2'
_cell_volume   208.60400735
_cell_formula_units_Z   1
loop_
 _symmetry_equiv_pos_site_id
 _symmetry_equiv_pos_as_xyz
  1  'x, y, z'
loop_
 _atom_site_type_symbol
 _atom_site_label
 _atom_site_symmetry_multiplicity
 _atom_site_fract_x
 _atom_site_fract_y
 _atom_site_fract_z
 _atom_site_occupancy
  Se  Se0  1  0.00000000  0.00000000  0.00000000  1
  Se  Se1  1  0.50000000  0.50000000  0.50000000  1
  P  P2  1  0.25000000  0.25000000  0.25000000  1
  P  P3  1  0.75000000  0.25000000  0.00000000  1
  P  P4  1  0.25000000  0.75000000  0.50000000  1
  Mo  Mo5  1  0.37043657  0.08943010  0.45663833  1
  Li  Li6  1  0.69796953  0.24914746  0.50570136  1
  Li  Li7  1  0.22355680  0.35976970  0.08636378  1
  Li  Li8  1  0.78794032  0.52804218  0.60665599  1
  Y  Y9  1  0.65266606  0.03547528  0.08366109  1
  Y  Y10  1  0.61070291  0.94567944  0.94801024  1
