# generated using pymatgen
data_LiF
_symmetry_space_group_name_H-M   'P 1'
_cell_length_a   15.03254975
_cell_length_b   7.38175125
_cell_length_c   7.53042185
_cell_angle_alpha   90.00000000
_cell_angle_beta   90.00000000
_cell_angle_gamma   90.00000000
_symmetry_Int_Tables_number   1
_chemical_formula_structural   LiF
_chemical_formula_sum   'Li24 F24'
_cell_volume   835.62487899
_cell_formula_units_Z   24
loop_
 _symmetry_equiv_pos_site_id
 _symmetry_equiv_pos_as_xyz
  1  'x, y, z'
loop_
 _atom_site_type_symbol
 _atom_site_label
 _atom_site_symmetry_multiplicity
 _atom_site_fract_x
 _atom_site_fract_y
 _atom_site_fract_z
 _atom_site_occupancy
  F  F0  1  0.08396118  0.25000000  0.01368196  1
  F  F1  1  0.41603882  0.75000000  0.51368196  1
  F  F2  1  0.91603882  0.75000000  0.98631804  1
  F  F3  1  0.58396118  0.25000000  0.48631804  1
  F  F4  1  0.15298001  0.25000000  0.61145899  1
  F  F5  1  0.34701999  0.75000000  0.11145899  1
  F  F6  1  0.84701999  0.75000000  0.38854101  1
  F  F7  1  0.65298001  0.25000000  0.88854101  1
  F  F8  1  0.51792182  0.05862812  0.22463434  1
  F  F9  1  0.98207818  0.94137188  0.72463434  1
  F  F10  1  0.48207818  0.55862812  0.77536566  1
  F  F11  1  0.01792182  0.44137188  0.27536566  1
  F  F12  1  0.48207818  0.94137188  0.77536566  1
  F  F13  1  0.01792182  0.05862812  0.27536566  1
  F  F14  1  0.51792182  0.44137188  0.22463434  1
  F  F15  1  0.98207818  0.55862812  0.72463434  1
  F  F16  1  0.29793884  0.34620836  0.79534963  1
  F  F17  1  0.20206116  0.65379164  0.29534963  1
  F  F18  1  0.70206116  0.84620836  0.20465037  1
  F  F19  1  0.79793884  0.15379164  0.70465037  1
  F  F20  1  0.70206116  0.65379164  0.20465037  1
  F  F21  1  0.79793884  0.34620836  0.70465037  1
  F  F22  1  0.29793884  0.15379164  0.79534963  1
  F  F23  1  0.20206116  0.84620836  0.29534963  1
  Li  Li24  1  0.11314049  0.34143616  0.82924388  1
  Li  Li25  1  0.38685951  -0.34143616  1.32924388  1
  Li  Li26  1  -0.11314049  0.84143616  -0.82924388  1
  Li  Li27  1  0.61314049  0.15856384  -0.32924388  1
  Li  Li28  1  -0.11314049  -0.34143616  -0.82924388  1
  Li  Li29  1  0.61314049  0.34143616  -0.32924388  1
  Li  Li30  1  0.11314049  0.15856384  0.82924388  1
  Li  Li31  1  0.38685951  0.84143616  1.32924388  1
  Li  Li32  1  0.00782850  0.25000000  0.46771992  1
  Li  Li33  1  0.49217150  0.75000000  0.96771992  1
  Li  Li34  1  0.99217150  0.75000000  0.53228008  1
  Li  Li35  1  0.50782850  0.25000000  0.03228008  1
  Li  Li36  1  0.00000000  0.00000000  0.50000000  1
  Li  Li37  1  0.50000000  0.00000000  0.00000000  1
  Li  Li38  1  0.00000000  0.50000000  0.50000000  1
  Li  Li39  1  0.50000000  0.50000000  0.00000000  1
  Li  Li40  1  0.85586593  0.25000000  0.97716401  1
  Li  Li41  1  0.64413407  0.75000000  0.47716401  1
  Li  Li42  1  0.14413407  0.75000000  0.02283599  1
  Li  Li43  1  0.35586593  0.25000000  0.52283599  1
  Li  Li44  1  0.32122426  0.25000000  0.06173454  1
  Li  Li45  1  0.17877574  0.75000000  0.56173454  1
  Li  Li46  1  0.67877574  0.75000000  0.93826546  1
  Li  Li47  1  0.82122426  0.25000000  0.43826546  1
