# generated using pymatgen
data_LiF
_symmetry_space_group_name_H-M   'P 1'
_cell_length_a   8.05989050
_cell_length_b   8.05989050
_cell_length_c   9.48212673
_cell_angle_alpha   90.00000000
_cell_angle_beta   90.00000000
_cell_angle_gamma   120.00000000
_symmetry_Int_Tables_number   1
_chemical_formula_structural   LiF
_chemical_formula_sum   'Li20 F20'
_cell_volume   533.45116884
_cell_formula_units_Z   20
loop_
 _symmetry_equiv_pos_site_id
 _symmetry_equiv_pos_as_xyz
  1  'x, y, z'
loop_
 _atom_site_type_symbol
 _atom_site_label
 _atom_site_symmetry_multiplicity
 _atom_site_fract_x
 _atom_site_fract_y
 _atom_site_fract_z
 _atom_site_occupancy
  F  F0  1  0.60285323  0.00836121  0.60279078  1
  F  F1  1  0.99163879  0.59449202  0.60279078  1
  F  F2  1  0.40550798  0.39714677  0.60279078  1
  F  F3  1  0.99163879  0.39714677  0.39720922  1
  F  F4  1  0.40550798  0.00836121  0.39720922  1
  F  F5  1  0.60285323  0.59449202  0.39720922  1
  F  F6  1  0.97377813  0.77953459  0.78575700  1
  F  F7  1  0.22046541  0.19424354  0.78575700  1
  F  F8  1  0.80575646  0.02622187  0.78575700  1
  F  F9  1  0.22046541  0.02622187  0.21424300  1
  F  F10  1  0.80575646  0.77953459  0.21424300  1
  F  F11  1  0.97377813  0.19424354  0.21424300  1
  F  F12  1  0.09617997  0.80343213  0.74882639  1
  F  F13  1  0.19656787  0.29274784  0.74882639  1
  F  F14  1  0.70725216  0.90382003  0.74882639  1
  F  F15  1  0.19656787  0.90382003  0.25117361  1
  F  F16  1  0.70725216  0.80343213  0.25117361  1
  F  F17  1  0.09617997  0.29274784  0.25117361  1
  F  F18  1  0.66666667  0.33333333  0.14198584  1
  F  F19  1  0.66666667  0.33333333  0.85801416  1
  Li  Li20  1  0.78439839  0.21560161  0.50000000  1
  Li  Li21  1  0.78439839  0.56879679  0.50000000  1
  Li  Li22  1  0.43120321  0.21560161  0.50000000  1
  Li  Li23  1  0.09896073  0.00181598  0.12479221  1
  Li  Li24  1  -0.00181598  0.09714474  0.12479221  1
  Li  Li25  1  -0.09714474  -0.09896073  0.12479221  1
  Li  Li26  1  -0.00181598  -0.09896073  -0.12479221  1
  Li  Li27  1  -0.09714474  0.00181598  -0.12479221  1
  Li  Li28  1  0.09896073  0.09714474  -0.12479221  1
  Li  Li29  1  0.00000000  0.00000000  0.50000000  1
  Li  Li30  1  0.66666667  0.33333333  0.50000000  1
  Li  Li31  1  0.00000000  0.00000000  0.00000000  1
  Li  Li32  1  0.66666667  0.33333333  0.24545008  1
  Li  Li33  1  0.66666667  0.33333333  0.75454992  1
  Li  Li34  1  0.72982197  0.27017803  0.00000000  1
  Li  Li35  1  0.72982197  0.45964394  0.00000000  1
  Li  Li36  1  0.54035606  0.27017803  -0.00000000  1
  Li  Li37  1  0.47917176  0.52082824  0.50000000  1
  Li  Li38  1  0.47917176  0.95834352  0.50000000  1
  Li  Li39  1  0.04165648  0.52082824  0.50000000  1
