# generated using pymatgen
data_Li2Y2As4P3
_symmetry_space_group_name_H-M   'P 1'
_cell_length_a   4.05076463
_cell_length_b   4.23056255
_cell_length_c   6.70128123
_cell_angle_alpha   96.41022438
_cell_angle_beta   103.96013603
_cell_angle_gamma   115.74732362
_symmetry_Int_Tables_number   1
_chemical_formula_structural   Li2Y2As4P3
_chemical_formula_sum   'Li2 Y2 As4 P3'
_cell_volume   97.25718223
_cell_formula_units_Z   1
loop_
 _symmetry_equiv_pos_site_id
 _symmetry_equiv_pos_as_xyz
  1  'x, y, z'
loop_
 _atom_site_type_symbol
 _atom_site_label
 _atom_site_symmetry_multiplicity
 _atom_site_fract_x
 _atom_site_fract_y
 _atom_site_fract_z
 _atom_site_occupancy
  P  P0  1  0.12500000  0.12500000  0.12500000  1
  P  P1  1  0.50000000  0.50000000  0.50000000  1
  P  P2  1  0.25000000  0.25000000  0.25000000  1
  As  As3  1  0.75000000  0.75000000  0.75000000  1
  As  As4  1  0.06789773  0.31059037  0.33244978  1
  As  As5  1  0.42053064  0.69075040  0.65174227  1
  As  As6  1  0.10471985  0.25715970  0.97494818  1
  Li  Li7  1  0.67240442  0.56259046  0.89681974  1
  Li  Li8  1  0.57667681  0.22029563  0.71357098  1
  Y  Y9  1  0.84992172  0.14898327  0.08777114  1
  Y  Y10  1  0.94423282  0.45601331  0.64363714  1
