# generated using pymatgen
data_LiF
_symmetry_space_group_name_H-M   'P 1'
_cell_length_a   6.97978233
_cell_length_b   6.97978233
_cell_length_c   10.87376104
_cell_angle_alpha   90.00000000
_cell_angle_beta   90.00000000
_cell_angle_gamma   120.00000000
_symmetry_Int_Tables_number   1
_chemical_formula_structural   LiF
_chemical_formula_sum   'Li24 F24'
_cell_volume   458.76911697
_cell_formula_units_Z   24
loop_
 _symmetry_equiv_pos_site_id
 _symmetry_equiv_pos_as_xyz
  1  'x, y, z'
loop_
 _atom_site_type_symbol
 _atom_site_label
 _atom_site_symmetry_multiplicity
 _atom_site_fract_x
 _atom_site_fract_y
 _atom_site_fract_z
 _atom_site_occupancy
  F  F0  1  0.94855578  0.23019018  0.87814955  1
  F  F1  1  0.76980982  0.71836560  0.87814955  1
  F  F2  1  0.28163440  0.05144422  0.87814955  1
  F  F3  1  0.76980982  0.05144422  0.12185045  1
  F  F4  1  0.28163440  0.23019018  0.12185045  1
  F  F5  1  0.94855578  0.71836560  0.12185045  1
  F  F6  1  0.96805638  0.48948348  0.90845945  1
  F  F7  1  0.51051652  0.47857290  0.90845945  1
  F  F8  1  0.52142710  0.03194362  0.90845945  1
  F  F9  1  0.51051652  0.03194362  0.09154055  1
  F  F10  1  0.52142710  0.48948348  0.09154055  1
  F  F11  1  0.96805638  0.47857290  0.09154055  1
  F  F12  1  0.84018833  0.15981167  0.00000000  1
  F  F13  1  0.84018833  0.68037666  0.00000000  1
  F  F14  1  0.31962334  0.15981167  -0.00000000  1
  F  F15  1  0.12016036  0.91761216  0.17524395  1
  F  F16  1  0.08238784  0.20254820  0.17524395  1
  F  F17  1  0.79745180  0.87983964  0.17524395  1
  F  F18  1  0.08238784  0.87983964  0.82475605  1
  F  F19  1  0.79745180  0.91761216  0.82475605  1
  F  F20  1  0.12016036  0.20254820  0.82475605  1
  F  F21  1  0.66666667  0.33333333  0.50000000  1
  F  F22  1  0.66666667  0.33333333  0.37849129  1
  F  F23  1  0.66666667  0.33333333  0.62150871  1
  Li  Li24  1  0.33608266  0.51082077  0.75451442  1
  Li  Li25  1  -0.51082077  -0.17473811  0.75451442  1
  Li  Li26  1  0.17473811  -0.33608266  0.75451442  1
  Li  Li27  1  -0.51082077  -0.33608266  -0.75451442  1
  Li  Li28  1  0.17473811  0.51082077  -0.75451442  1
  Li  Li29  1  0.33608266  -0.17473811  -0.75451442  1
  Li  Li30  1  0.79995051  0.52121054  0.16908537  1
  Li  Li31  1  0.47878946  0.27873997  0.16908537  1
  Li  Li32  1  0.72126003  0.20004949  0.16908537  1
  Li  Li33  1  0.47878946  0.20004949  0.83091463  1
  Li  Li34  1  0.72126003  0.52121054  0.83091463  1
  Li  Li35  1  0.79995051  0.27873997  0.83091463  1
  Li  Li36  1  0.54266621  0.45733379  0.00000000  1
  Li  Li37  1  0.54266621  0.08533242  0.00000000  1
  Li  Li38  1  0.91466758  0.45733379  -0.00000000  1
  Li  Li39  1  0.00000000  0.00000000  0.50000000  1
  Li  Li40  1  0.13678599  0.26598952  0.92479599  1
  Li  Li41  1  0.73401048  0.87079648  0.92479599  1
  Li  Li42  1  0.12920352  0.86321401  0.92479599  1
  Li  Li43  1  0.73401048  0.86321401  0.07520401  1
  Li  Li44  1  0.12920352  0.26598952  0.07520401  1
  Li  Li45  1  0.13678599  0.87079648  0.07520401  1
  Li  Li46  1  0.66666667  0.33333333  0.00000000  1
  Li  Li47  1  0.33333333  0.66666667  0.00000000  1
