# generated using pymatgen
data_LiF
_symmetry_space_group_name_H-M   'P 1'
_cell_length_a   8.61726525
_cell_length_b   10.88898355
_cell_length_c   9.88288768
_cell_angle_alpha   90.00000000
_cell_angle_beta   90.00000000
_cell_angle_gamma   90.00000000
_symmetry_Int_Tables_number   1
_chemical_formula_structural   LiF
_chemical_formula_sum   'Li28 F28'
_cell_volume   927.34356565
_cell_formula_units_Z   28
loop_
 _symmetry_equiv_pos_site_id
 _symmetry_equiv_pos_as_xyz
  1  'x, y, z'
loop_
 _atom_site_type_symbol
 _atom_site_label
 _atom_site_symmetry_multiplicity
 _atom_site_fract_x
 _atom_site_fract_y
 _atom_site_fract_z
 _atom_site_occupancy
  F  F0  1  0.90051090  0.64711118  0.08408394  1
  F  F1  1  0.59948910  0.35288882  0.58408394  1
  F  F2  1  0.09948910  0.14711118  0.91591606  1
  F  F3  1  0.40051090  0.85288882  0.41591606  1
  F  F4  1  0.09948910  0.35288882  0.91591606  1
  F  F5  1  0.40051090  0.64711118  0.41591606  1
  F  F6  1  0.90051090  0.85288882  0.08408394  1
  F  F7  1  0.59948910  0.14711118  0.58408394  1
  F  F8  1  0.53008092  0.25000000  0.54309260  1
  F  F9  1  0.96991908  0.75000000  0.04309260  1
  F  F10  1  0.46991908  0.75000000  0.45690740  1
  F  F11  1  0.03008092  0.25000000  0.95690740  1
  F  F12  1  0.08516466  0.51688764  0.39486455  1
  F  F13  1  0.41483534  0.48311236  0.89486455  1
  F  F14  1  0.91483534  0.01688764  0.60513545  1
  F  F15  1  0.58516466  0.98311236  0.10513545  1
  F  F16  1  0.91483534  0.48311236  0.60513545  1
  F  F17  1  0.58516466  0.51688764  0.10513545  1
  F  F18  1  0.08516466  0.98311236  0.39486455  1
  F  F19  1  0.41483534  0.01688764  0.89486455  1
  F  F20  1  0.33904745  0.58059264  0.23792314  1
  F  F21  1  0.16095255  0.41940736  0.73792314  1
  F  F22  1  0.66095255  0.08059264  0.76207686  1
  F  F23  1  0.83904745  0.91940736  0.26207686  1
  F  F24  1  0.66095255  0.41940736  0.76207686  1
  F  F25  1  0.83904745  0.58059264  0.26207686  1
  F  F26  1  0.33904745  0.91940736  0.23792314  1
  F  F27  1  0.16095255  0.08059264  0.73792314  1
  Li  Li28  1  0.06273852  0.25000000  0.04696116  1
  Li  Li29  1  0.43726148  0.75000000  0.54696116  1
  Li  Li30  1  0.93726148  0.75000000  0.95303884  1
  Li  Li31  1  0.56273852  0.25000000  0.45303884  1
  Li  Li32  1  0.00000000  0.00000000  0.50000000  1
  Li  Li33  1  0.50000000  0.00000000  0.00000000  1
  Li  Li34  1  0.00000000  0.50000000  0.50000000  1
  Li  Li35  1  0.50000000  0.50000000  -0.00000000  1
  Li  Li36  1  0.00000000  0.00000000  0.00000000  1
  Li  Li37  1  0.50000000  0.00000000  0.50000000  1
  Li  Li38  1  0.00000000  0.50000000  -0.00000000  1
  Li  Li39  1  0.50000000  0.50000000  0.50000000  1
  Li  Li40  1  0.84087982  0.46771003  0.93784196  1
  Li  Li41  1  -0.34087982  -0.46771003  1.43784196  1
  Li  Li42  1  -0.84087982  0.96771003  -0.93784196  1
  Li  Li43  1  1.34087982  0.03228997  -0.43784196  1
  Li  Li44  1  -0.84087982  -0.46771003  -0.93784196  1
  Li  Li45  1  1.34087982  0.46771003  -0.43784196  1
  Li  Li46  1  0.84087982  0.03228997  0.93784196  1
  Li  Li47  1  -0.34087982  0.96771003  1.43784196  1
  Li  Li48  1  0.12311928  0.00623252  0.63549854  1
  Li  Li49  1  0.37688072  0.99376748  0.13549854  1
  Li  Li50  1  0.87688072  0.50623252  0.36450146  1
  Li  Li51  1  0.62311928  0.49376748  0.86450146  1
  Li  Li52  1  0.87688072  0.99376748  0.36450146  1
  Li  Li53  1  0.62311928  0.00623252  0.86450146  1
  Li  Li54  1  0.12311928  0.49376748  0.63549854  1
  Li  Li55  1  0.37688072  0.50623252  0.13549854  1
