# generated using pymatgen
data_LiF
_symmetry_space_group_name_H-M   'P 1'
_cell_length_a   9.33557735
_cell_length_b   7.99435587
_cell_length_c   7.48204942
_cell_angle_alpha   90.00000000
_cell_angle_beta   90.00000000
_cell_angle_gamma   90.00000000
_symmetry_Int_Tables_number   1
_chemical_formula_structural   LiF
_chemical_formula_sum   'Li18 F18'
_cell_volume   558.39977084
_cell_formula_units_Z   18
loop_
 _symmetry_equiv_pos_site_id
 _symmetry_equiv_pos_as_xyz
  1  'x, y, z'
loop_
 _atom_site_type_symbol
 _atom_site_label
 _atom_site_symmetry_multiplicity
 _atom_site_fract_x
 _atom_site_fract_y
 _atom_site_fract_z
 _atom_site_occupancy
  F  F0  1  0.03996470  0.10709938  0.00000000  1
  F  F1  1  0.96003530  0.89290062  0.00000000  1
  F  F2  1  0.46003530  0.60709938  -0.00000000  1
  F  F3  1  0.53996470  0.39290062  -0.00000000  1
  F  F4  1  0.94396768  0.13124343  0.74464878  1
  F  F5  1  -0.94396768  -0.13124343  0.74464878  1
  F  F6  1  -0.44396768  0.63124343  -0.74464878  1
  F  F7  1  1.44396768  0.36875657  -0.74464878  1
  F  F8  1  -0.94396768  -0.13124343  -0.74464878  1
  F  F9  1  0.94396768  0.13124343  -0.74464878  1
  F  F10  1  1.44396768  0.36875657  0.74464878  1
  F  F11  1  -0.44396768  0.63124343  0.74464878  1
  F  F12  1  0.85391760  0.35504441  0.00000000  1
  F  F13  1  0.14608240  0.64495559  0.00000000  1
  F  F14  1  0.64608240  0.85504441  -0.00000000  1
  F  F15  1  0.35391760  0.14495559  0.00000000  1
  F  F16  1  0.00000000  0.00000000  0.50000000  1
  F  F17  1  0.50000000  0.50000000  0.50000000  1
  Li  Li18  1  0.79749335  0.73377318  0.63279373  1
  Li  Li19  1  0.20250665  0.26622682  0.63279373  1
  Li  Li20  1  0.70250665  0.23377318  0.36720627  1
  Li  Li21  1  0.29749335  0.76622682  0.36720627  1
  Li  Li22  1  0.20250665  0.26622682  0.36720627  1
  Li  Li23  1  0.79749335  0.73377318  0.36720627  1
  Li  Li24  1  0.29749335  0.76622682  0.63279373  1
  Li  Li25  1  0.70250665  0.23377318  0.63279373  1
  Li  Li26  1  0.00000000  0.00000000  0.00000000  1
  Li  Li27  1  0.50000000  0.50000000  -0.00000000  1
  Li  Li28  1  0.00000000  0.50000000  0.50000000  1
  Li  Li29  1  0.50000000  0.00000000  0.50000000  1
  Li  Li30  1  0.00000000  0.00000000  0.32599065  1
  Li  Li31  1  0.50000000  0.50000000  0.67400935  1
  Li  Li32  1  0.00000000  0.00000000  0.67400935  1
  Li  Li33  1  0.50000000  0.50000000  0.32599065  1
  Li  Li34  1  0.00000000  0.50000000  0.00000000  1
  Li  Li35  1  0.50000000  0.00000000  0.00000000  1
