# generated using pymatgen
data_LiF
_symmetry_space_group_name_H-M   'P 1'
_cell_length_a   7.42236268
_cell_length_b   12.18218176
_cell_length_c   8.80785807
_cell_angle_alpha   90.00000000
_cell_angle_beta   90.00000000
_cell_angle_gamma   90.00000000
_symmetry_Int_Tables_number   1
_chemical_formula_structural   LiF
_chemical_formula_sum   'Li24 F24'
_cell_volume   796.41155878
_cell_formula_units_Z   24
loop_
 _symmetry_equiv_pos_site_id
 _symmetry_equiv_pos_as_xyz
  1  'x, y, z'
loop_
 _atom_site_type_symbol
 _atom_site_label
 _atom_site_symmetry_multiplicity
 _atom_site_fract_x
 _atom_site_fract_y
 _atom_site_fract_z
 _atom_site_occupancy
  F  F0  1  0.67842705  0.97223800  0.16727409  1
  F  F1  1  -0.67842705  -0.97223800  0.16727409  1
  F  F2  1  -0.17842705  1.47223800  0.33272591  1
  F  F3  1  1.17842705  -0.47223800  0.33272591  1
  F  F4  1  -0.67842705  -0.97223800  -0.16727409  1
  F  F5  1  0.67842705  0.97223800  -0.16727409  1
  F  F6  1  1.17842705  -0.47223800  0.66727409  1
  F  F7  1  -0.17842705  1.47223800  0.66727409  1
  F  F8  1  0.40873079  0.17536686  0.56658739  1
  F  F9  1  0.59126921  0.82463314  0.56658739  1
  F  F10  1  0.09126921  0.67536686  0.93341261  1
  F  F11  1  0.90873079  0.32463314  0.93341261  1
  F  F12  1  0.59126921  0.82463314  0.43341261  1
  F  F13  1  0.40873079  0.17536686  0.43341261  1
  F  F14  1  0.90873079  0.32463314  0.06658739  1
  F  F15  1  0.09126921  0.67536686  0.06658739  1
  F  F16  1  0.52383746  0.88404790  0.56894252  1
  F  F17  1  0.47616254  0.11595210  0.56894252  1
  F  F18  1  0.97616254  0.38404790  0.93105748  1
  F  F19  1  0.02383746  0.61595210  0.93105748  1
  F  F20  1  0.47616254  0.11595210  0.43105748  1
  F  F21  1  0.52383746  0.88404790  0.43105748  1
  F  F22  1  0.02383746  0.61595210  0.06894252  1
  F  F23  1  0.97616254  0.38404790  0.06894252  1
  Li  Li24  1  0.74288593  0.33951896  0.08948197  1
  Li  Li25  1  0.25711407  0.66048104  0.08948197  1
  Li  Li26  1  0.75711407  0.83951896  0.41051803  1
  Li  Li27  1  0.24288593  0.16048104  0.41051803  1
  Li  Li28  1  0.25711407  0.66048104  0.91051803  1
  Li  Li29  1  0.74288593  0.33951896  0.91051803  1
  Li  Li30  1  0.24288593  0.16048104  0.58948197  1
  Li  Li31  1  0.75711407  0.83951896  0.58948197  1
  Li  Li32  1  0.00000000  0.00000000  0.50000000  1
  Li  Li33  1  0.50000000  0.50000000  0.00000000  1
  Li  Li34  1  0.72502778  0.03757553  0.29142260  1
  Li  Li35  1  0.27497222  0.96242447  0.29142260  1
  Li  Li36  1  0.77497222  0.53757553  0.20857740  1
  Li  Li37  1  0.22502778  0.46242447  0.20857740  1
  Li  Li38  1  0.27497222  0.96242447  0.70857740  1
  Li  Li39  1  0.72502778  0.03757553  0.70857740  1
  Li  Li40  1  0.22502778  0.46242447  0.79142260  1
  Li  Li41  1  0.77497222  0.53757553  0.79142260  1
  Li  Li42  1  0.00000000  0.50000000  0.75824811  1
  Li  Li43  1  0.50000000  0.00000000  0.74175189  1
  Li  Li44  1  0.00000000  0.50000000  0.24175189  1
  Li  Li45  1  0.50000000  0.00000000  0.25824811  1
  Li  Li46  1  0.00000000  0.50000000  0.50000000  1
  Li  Li47  1  0.50000000  0.00000000  0.00000000  1
