# generated using pymatgen
data_LiF
_symmetry_space_group_name_H-M   'P 1'
_cell_length_a   6.81294327
_cell_length_b   6.22168309
_cell_length_c   6.08422352
_cell_angle_alpha   90.00000000
_cell_angle_beta   90.00000000
_cell_angle_gamma   90.00000000
_symmetry_Int_Tables_number   1
_chemical_formula_structural   LiF
_chemical_formula_sum   'Li24 F24'
_cell_volume   257.89790806
_cell_formula_units_Z   24
loop_
 _symmetry_equiv_pos_site_id
 _symmetry_equiv_pos_as_xyz
  1  'x, y, z'
loop_
 _atom_site_type_symbol
 _atom_site_label
 _atom_site_symmetry_multiplicity
 _atom_site_fract_x
 _atom_site_fract_y
 _atom_site_fract_z
 _atom_site_occupancy
  F  F0  1  0.76065463  0.05246968  0.82202668  1
  F  F1  1  0.73934537  0.94753032  0.32202668  1
  F  F2  1  0.23934537  0.55246968  0.17797332  1
  F  F3  1  0.26065463  0.44753032  0.67797332  1
  F  F4  1  0.23934537  0.94753032  0.17797332  1
  F  F5  1  0.26065463  0.05246968  0.67797332  1
  F  F6  1  0.76065463  0.44753032  0.82202668  1
  F  F7  1  0.73934537  0.55246968  0.32202668  1
  F  F8  1  0.83962593  0.18612601  0.35486553  1
  F  F9  1  0.66037407  0.81387399  0.85486553  1
  F  F10  1  0.16037407  0.68612601  0.64513447  1
  F  F11  1  0.33962593  0.31387399  0.14513447  1
  F  F12  1  0.16037407  0.81387399  0.64513447  1
  F  F13  1  0.33962593  0.18612601  0.14513447  1
  F  F14  1  0.83962593  0.31387399  0.35486553  1
  F  F15  1  0.66037407  0.68612601  0.85486553  1
  F  F16  1  0.12542842  0.37742725  0.70126749  1
  F  F17  1  0.37457158  0.62257275  0.20126749  1
  F  F18  1  0.87457158  0.87742725  0.29873251  1
  F  F19  1  0.62542842  0.12257275  0.79873251  1
  F  F20  1  0.87457158  0.62257275  0.29873251  1
  F  F21  1  0.62542842  0.37742725  0.79873251  1
  F  F22  1  0.12542842  0.12257275  0.70126749  1
  F  F23  1  0.37457158  0.87742725  0.20126749  1
  Li  Li24  1  0.17108152  0.47098241  0.97743856  1
  Li  Li25  1  0.32891848  -0.47098241  1.47743856  1
  Li  Li26  1  -0.17108152  0.97098241  -0.97743856  1
  Li  Li27  1  0.67108152  0.02901759  -0.47743856  1
  Li  Li28  1  -0.17108152  -0.47098241  -0.97743856  1
  Li  Li29  1  0.67108152  0.47098241  -0.47743856  1
  Li  Li30  1  0.17108152  0.02901759  0.97743856  1
  Li  Li31  1  0.32891848  0.97098241  1.47743856  1
  Li  Li32  1  0.72566728  0.61643573  0.67634440  1
  Li  Li33  1  0.77433272  0.38356427  0.17634440  1
  Li  Li34  1  0.27433272  0.11643573  0.32365560  1
  Li  Li35  1  0.22566728  0.88356427  0.82365560  1
  Li  Li36  1  0.27433272  0.38356427  0.32365560  1
  Li  Li37  1  0.22566728  0.61643573  0.82365560  1
  Li  Li38  1  0.72566728  0.88356427  0.67634440  1
  Li  Li39  1  0.77433272  0.11643573  0.17634440  1
  Li  Li40  1  0.07417847  0.25000000  0.05433773  1
  Li  Li41  1  0.42582153  0.75000000  0.55433773  1
  Li  Li42  1  0.92582153  0.75000000  0.94566227  1
  Li  Li43  1  0.57417847  0.25000000  0.44566227  1
  Li  Li44  1  0.00000000  0.00000000  0.50000000  1
  Li  Li45  1  0.50000000  0.00000000  0.00000000  1
  Li  Li46  1  0.00000000  0.50000000  0.50000000  1
  Li  Li47  1  0.50000000  0.50000000  -0.00000000  1
