# generated using pymatgen
data_LiF
_symmetry_space_group_name_H-M   'P 1'
_cell_length_a   9.04370732
_cell_length_b   9.41022391
_cell_length_c   6.08867352
_cell_angle_alpha   90.00000000
_cell_angle_beta   90.00000000
_cell_angle_gamma   90.00000000
_symmetry_Int_Tables_number   1
_chemical_formula_structural   LiF
_chemical_formula_sum   'Li24 F24'
_cell_volume   518.16627502
_cell_formula_units_Z   24
loop_
 _symmetry_equiv_pos_site_id
 _symmetry_equiv_pos_as_xyz
  1  'x, y, z'
loop_
 _atom_site_type_symbol
 _atom_site_label
 _atom_site_symmetry_multiplicity
 _atom_site_fract_x
 _atom_site_fract_y
 _atom_site_fract_z
 _atom_site_occupancy
  F  F0  1  0.40162162  0.71380150  0.36240903  1
  F  F1  1  0.09837838  0.28619850  0.86240903  1
  F  F2  1  0.59837838  0.21380150  0.63759097  1
  F  F3  1  0.90162162  0.78619850  0.13759097  1
  F  F4  1  0.59837838  0.28619850  0.63759097  1
  F  F5  1  0.90162162  0.71380150  0.13759097  1
  F  F6  1  0.40162162  0.78619850  0.36240903  1
  F  F7  1  0.09837838  0.21380150  0.86240903  1
  F  F8  1  0.56254637  0.12751323  0.23634074  1
  F  F9  1  0.93745363  0.87248677  0.73634074  1
  F  F10  1  0.43745363  0.62751323  0.76365926  1
  F  F11  1  0.06254637  0.37248677  0.26365926  1
  F  F12  1  0.43745363  0.87248677  0.76365926  1
  F  F13  1  0.06254637  0.12751323  0.26365926  1
  F  F14  1  0.56254637  0.37248677  0.23634074  1
  F  F15  1  0.93745363  0.62751323  0.73634074  1
  F  F16  1  0.50725421  0.80647743  0.42009481  1
  F  F17  1  0.99274579  0.19352257  0.92009481  1
  F  F18  1  0.49274579  0.30647743  0.57990519  1
  F  F19  1  0.00725421  0.69352257  0.07990519  1
  F  F20  1  0.49274579  0.19352257  0.57990519  1
  F  F21  1  0.00725421  0.80647743  0.07990519  1
  F  F22  1  0.50725421  0.69352257  0.42009481  1
  F  F23  1  0.99274579  0.30647743  0.92009481  1
  Li  Li24  1  0.00000000  0.00000000  0.50000000  1
  Li  Li25  1  0.50000000  0.00000000  0.00000000  1
  Li  Li26  1  0.00000000  0.50000000  0.50000000  1
  Li  Li27  1  0.50000000  0.50000000  0.00000000  1
  Li  Li28  1  0.00000000  0.00000000  0.00000000  1
  Li  Li29  1  0.50000000  0.00000000  0.50000000  1
  Li  Li30  1  0.00000000  0.50000000  0.00000000  1
  Li  Li31  1  0.50000000  0.50000000  0.50000000  1
  Li  Li32  1  0.18271068  0.25000000  0.71445719  1
  Li  Li33  1  0.31728932  0.75000000  0.21445719  1
  Li  Li34  1  0.81728932  0.75000000  0.28554281  1
  Li  Li35  1  0.68271068  0.25000000  0.78554281  1
  Li  Li36  1  0.83608041  0.41932344  0.69710074  1
  Li  Li37  1  -0.33608041  -0.41932344  1.19710074  1
  Li  Li38  1  -0.83608041  0.91932344  -0.69710074  1
  Li  Li39  1  1.33608041  0.08067656  -0.19710074  1
  Li  Li40  1  -0.83608041  -0.41932344  -0.69710074  1
  Li  Li41  1  1.33608041  0.41932344  -0.19710074  1
  Li  Li42  1  0.83608041  0.08067656  0.69710074  1
  Li  Li43  1  -0.33608041  0.91932344  1.19710074  1
  Li  Li44  1  0.83025666  0.25000000  0.58572356  1
  Li  Li45  1  0.66974334  0.75000000  0.08572356  1
  Li  Li46  1  0.16974334  0.75000000  0.41427644  1
  Li  Li47  1  0.33025666  0.25000000  0.91427644  1
