# generated using pymatgen
data_LiF
_symmetry_space_group_name_H-M   'P 1'
_cell_length_a   5.84555558
_cell_length_b   8.98815438
_cell_length_c   7.63976578
_cell_angle_alpha   90.00000000
_cell_angle_beta   90.00000000
_cell_angle_gamma   90.00000000
_symmetry_Int_Tables_number   1
_chemical_formula_structural   LiF
_chemical_formula_sum   'Li24 F24'
_cell_volume   401.39906926
_cell_formula_units_Z   24
loop_
 _symmetry_equiv_pos_site_id
 _symmetry_equiv_pos_as_xyz
  1  'x, y, z'
loop_
 _atom_site_type_symbol
 _atom_site_label
 _atom_site_symmetry_multiplicity
 _atom_site_fract_x
 _atom_site_fract_y
 _atom_site_fract_z
 _atom_site_occupancy
  F  F0  1  0.73735079  0.94873981  0.79015201  1
  F  F1  1  0.76264921  0.05126019  0.29015201  1
  F  F2  1  0.26264921  0.44873981  0.20984799  1
  F  F3  1  0.23735079  0.55126019  0.70984799  1
  F  F4  1  0.26264921  0.05126019  0.20984799  1
  F  F5  1  0.23735079  0.94873981  0.70984799  1
  F  F6  1  0.73735079  0.55126019  0.79015201  1
  F  F7  1  0.76264921  0.44873981  0.29015201  1
  F  F8  1  0.77695750  0.49995574  0.37003814  1
  F  F9  1  0.72304250  0.50004426  0.87003814  1
  F  F10  1  0.22304250  0.99995574  0.62996186  1
  F  F11  1  0.27695750  0.00004426  0.12996186  1
  F  F12  1  0.22304250  0.50004426  0.62996186  1
  F  F13  1  0.27695750  0.49995574  0.12996186  1
  F  F14  1  0.77695750  0.00004426  0.37003814  1
  F  F15  1  0.72304250  0.99995574  0.87003814  1
  F  F16  1  0.50475176  0.10787244  0.64706762  1
  F  F17  1  0.99524824  0.89212756  0.14706762  1
  F  F18  1  0.49524824  0.60787244  0.35293238  1
  F  F19  1  0.00475176  0.39212756  0.85293238  1
  F  F20  1  0.49524824  0.89212756  0.35293238  1
  F  F21  1  0.00475176  0.10787244  0.85293238  1
  F  F22  1  0.50475176  0.39212756  0.64706762  1
  F  F23  1  0.99524824  0.60787244  0.14706762  1
  Li  Li24  1  0.94107407  0.08326475  0.19864419  1
  Li  Li25  1  -0.44107407  -0.08326475  0.69864419  1
  Li  Li26  1  -0.94107407  0.58326475  -0.19864419  1
  Li  Li27  1  1.44107407  0.41673525  0.30135581  1
  Li  Li28  1  -0.94107407  -0.08326475  -0.19864419  1
  Li  Li29  1  1.44107407  0.08326475  0.30135581  1
  Li  Li30  1  0.94107407  0.41673525  0.19864419  1
  Li  Li31  1  -0.44107407  0.58326475  0.69864419  1
  Li  Li32  1  0.00000000  0.00000000  0.00000000  1
  Li  Li33  1  0.50000000  -0.00000000  0.50000000  1
  Li  Li34  1  0.00000000  0.50000000  0.00000000  1
  Li  Li35  1  0.50000000  0.50000000  0.50000000  1
  Li  Li36  1  0.24025021  0.25000000  0.62565963  1
  Li  Li37  1  0.25974979  0.75000000  0.12565963  1
  Li  Li38  1  0.75974979  0.75000000  0.37434037  1
  Li  Li39  1  0.74025021  0.25000000  0.87434037  1
  Li  Li40  1  0.54161163  0.25000000  0.59567083  1
  Li  Li41  1  0.95838837  0.75000000  0.09567083  1
  Li  Li42  1  0.45838837  0.75000000  0.40432917  1
  Li  Li43  1  0.04161163  0.25000000  0.90432917  1
  Li  Li44  1  0.00000000  0.00000000  0.50000000  1
  Li  Li45  1  0.50000000  -0.00000000  0.00000000  1
  Li  Li46  1  0.00000000  0.50000000  0.50000000  1
  Li  Li47  1  0.50000000  0.50000000  0.00000000  1
