# generated using pymatgen
data_LiF
_symmetry_space_group_name_H-M   'P 1'
_cell_length_a   8.24705324
_cell_length_b   5.89813302
_cell_length_c   7.37671374
_cell_angle_alpha   90.00000000
_cell_angle_beta   90.00000000
_cell_angle_gamma   90.00000000
_symmetry_Int_Tables_number   1
_chemical_formula_structural   LiF
_chemical_formula_sum   'Li10 F10'
_cell_volume   358.81971110
_cell_formula_units_Z   10
loop_
 _symmetry_equiv_pos_site_id
 _symmetry_equiv_pos_as_xyz
  1  'x, y, z'
loop_
 _atom_site_type_symbol
 _atom_site_label
 _atom_site_symmetry_multiplicity
 _atom_site_fract_x
 _atom_site_fract_y
 _atom_site_fract_z
 _atom_site_occupancy
  F  F0  1  0.81955871  0.69590123  0.50000000  1
  F  F1  1  0.18044129  0.30409877  0.50000000  1
  F  F2  1  0.68044129  0.19590123  0.50000000  1
  F  F3  1  0.31955871  0.80409877  0.50000000  1
  F  F4  1  0.92584442  0.81309771  0.50000000  1
  F  F5  1  0.07415558  0.18690229  0.50000000  1
  F  F6  1  0.57415558  0.31309771  0.50000000  1
  F  F7  1  0.42584442  0.68690229  0.50000000  1
  F  F8  1  0.00000000  0.50000000  0.00000000  1
  F  F9  1  0.50000000  0.00000000  0.00000000  1
  Li  Li10  1  0.00000000  0.50000000  0.50000000  1
  Li  Li11  1  0.50000000  0.00000000  0.50000000  1
  Li  Li12  1  0.00000000  0.00000000  0.11430353  1
  Li  Li13  1  0.50000000  0.50000000  -0.11430353  1
  Li  Li14  1  0.00000000  0.00000000  -0.11430353  1
  Li  Li15  1  0.50000000  0.50000000  0.11430353  1
  Li  Li16  1  0.00000000  0.50000000  0.29403898  1
  Li  Li17  1  0.50000000  0.00000000  0.70596102  1
  Li  Li18  1  0.00000000  0.50000000  0.70596102  1
  Li  Li19  1  0.50000000  0.00000000  0.29403898  1
