# generated using pymatgen
data_LiY2Cu3P2Se
_symmetry_space_group_name_H-M   'P 1'
_cell_length_a   4.94845547
_cell_length_b   4.94460558
_cell_length_c   6.59269422
_cell_angle_alpha   94.25977882
_cell_angle_beta   97.08563759
_cell_angle_gamma   103.64839216
_symmetry_Int_Tables_number   1
_chemical_formula_structural   LiY2Cu3P2Se
_chemical_formula_sum   'Li1 Y2 Cu3 P2 Se1'
_cell_volume   154.66229165
_cell_formula_units_Z   1
loop_
 _symmetry_equiv_pos_site_id
 _symmetry_equiv_pos_as_xyz
  1  'x, y, z'
loop_
 _atom_site_type_symbol
 _atom_site_label
 _atom_site_symmetry_multiplicity
 _atom_site_fract_x
 _atom_site_fract_y
 _atom_site_fract_z
 _atom_site_occupancy
  Se  Se0  1  0.00000000  0.00000000  0.00000000  1
  Cu  Cu1  1  0.50000000  0.50000000  0.50000000  1
  Cu  Cu2  1  0.25000000  0.25000000  0.25000000  1
  Cu  Cu3  1  0.75000000  0.25000000  0.00000000  1
  Y  Y4  1  0.25000000  0.75000000  0.50000000  1
  Y  Y5  1  0.74612300  0.71075289  0.60241141  1
  P  P6  1  0.27635856  0.82651923  0.22871116  1
  P  P7  1  0.57904813  0.91126425  0.26764663  1
  Li  Li8  1  0.55893358  0.08978900  0.08526492  1
