# generated using pymatgen
data_Li3YAsP4
_symmetry_space_group_name_H-M   'P 1'
_cell_length_a   5.04154856
_cell_length_b   5.72150418
_cell_length_c   7.22833429
_cell_angle_alpha   95.00413356
_cell_angle_beta   100.67456306
_cell_angle_gamma   109.01396652
_symmetry_Int_Tables_number   1
_chemical_formula_structural   Li3YAsP4
_chemical_formula_sum   'Li3 Y1 As1 P4'
_cell_volume   191.25632437
_cell_formula_units_Z   1
loop_
 _symmetry_equiv_pos_site_id
 _symmetry_equiv_pos_as_xyz
  1  'x, y, z'
loop_
 _atom_site_type_symbol
 _atom_site_label
 _atom_site_symmetry_multiplicity
 _atom_site_fract_x
 _atom_site_fract_y
 _atom_site_fract_z
 _atom_site_occupancy
  Y  Y0  1  0.00000000  0.00000000  0.00000000  1
  P  P1  1  0.50000000  0.50000000  0.50000000  1
  P  P2  1  0.50000000  0.50000000  0.00000000  1
  P  P3  1  0.50000000  0.00000000  0.50000000  1
  P  P4  1  0.00000000  0.50000000  0.50000000  1
  As  As5  1  0.73269530  0.17634505  0.63358844  1
  Li  Li6  1  0.55850158  0.32725482  0.39715432  1
  Li  Li7  1  0.50431669  0.55573625  0.92766227  1
  Li  Li8  1  0.84597080  0.70448310  0.37470640  1
