# generated using pymatgen
data_LiYPSe
_symmetry_space_group_name_H-M   'P 1'
_cell_length_a   5.24245998
_cell_length_b   5.35855121
_cell_length_c   7.05123570
_cell_angle_alpha   94.29188447
_cell_angle_beta   99.34683212
_cell_angle_gamma   107.23879415
_symmetry_Int_Tables_number   1
_chemical_formula_structural   LiYPSe
_chemical_formula_sum   'Li2 Y2 P2 Se2'
_cell_volume   185.07718339
_cell_formula_units_Z   2
loop_
 _symmetry_equiv_pos_site_id
 _symmetry_equiv_pos_as_xyz
  1  'x, y, z'
loop_
 _atom_site_type_symbol
 _atom_site_label
 _atom_site_symmetry_multiplicity
 _atom_site_fract_x
 _atom_site_fract_y
 _atom_site_fract_z
 _atom_site_occupancy
  Y  Y0  1  0.00000000  0.00000000  0.00000000  1
  Y  Y1  1  0.50000000  0.50000000  0.50000000  1
  P  P2  1  0.50000000  0.50000000  0.00000000  1
  P  P3  1  0.50000000  0.00000000  0.50000000  1
  Se  Se4  1  0.00000000  0.50000000  0.50000000  1
  Se  Se5  1  0.05958859  0.87662223  0.31628727  1
  Li  Li6  1  0.63831155  0.73037824  0.65960176  1
  Li  Li7  1  0.37881787  0.99227390  0.87990934  1
