# generated using pymatgen
data_Li2Ca3F8
_symmetry_space_group_name_H-M   'P 1'
_cell_length_a   7.23657526
_cell_length_b   7.23657526
_cell_length_c   44.54608909
_cell_angle_alpha   90.00000000
_cell_angle_beta   90.00000000
_cell_angle_gamma   120.00000000
_symmetry_Int_Tables_number   1
_chemical_formula_structural   Li2Ca3F8
_chemical_formula_sum   'Li16 Ca24 F64'
_cell_volume   2020.25588000
_cell_formula_units_Z   8
loop_
 _symmetry_equiv_pos_site_id
 _symmetry_equiv_pos_as_xyz
  1  'x, y, z'
loop_
 _atom_site_type_symbol
 _atom_site_label
 _atom_site_symmetry_multiplicity
 _atom_site_fract_x
 _atom_site_fract_y
 _atom_site_fract_z
 _atom_site_occupancy
  Ca  Ca0  1  0.52780100  0.47219900  0.50000000  1
  Ca  Ca1  1  0.52780100  0.05560201  0.50000000  1
  Ca  Ca2  1  0.94439799  0.47219900  0.50000000  1
  Ca  Ca3  1  0.00000000  0.00000000  0.50000000  1
  Ca  Ca4  1  0.13258379  0.75235872  0.45933854  1
  Ca  Ca5  1  0.24764128  0.38022507  0.45933854  1
  Ca  Ca6  1  0.61977493  0.86741621  0.45933854  1
  Ca  Ca7  1  0.24764128  0.86741621  0.54066146  1
  Ca  Ca8  1  0.61977493  0.75235872  0.54066146  1
  Ca  Ca9  1  0.13258379  0.38022507  0.54066146  1
  Ca  Ca10  1  0.64869271  0.50100717  0.85326381  1
  Ca  Ca11  1  0.49899283  0.14768554  0.85326381  1
  Ca  Ca12  1  0.85231446  0.35130729  0.85326381  1
  Ca  Ca13  1  0.49899283  0.35130729  0.14673619  1
  Ca  Ca14  1  0.85231446  0.50100717  0.14673619  1
  Ca  Ca15  1  0.64869271  0.14768554  0.14673619  1
  Ca  Ca16  1  0.51626886  0.32306595  0.55839996  1
  Ca  Ca17  1  0.67693405  0.19320291  0.55839996  1
  Ca  Ca18  1  0.80679709  0.48373114  0.55839996  1
  Ca  Ca19  1  0.67693405  0.48373114  0.44160004  1
  Ca  Ca20  1  0.80679709  0.32306595  0.44160004  1
  Ca  Ca21  1  0.51626886  0.19320291  0.44160004  1
  Ca  Ca22  1  0.00000000  0.00000000  0.91157342  1
  Ca  Ca23  1  0.00000000  0.00000000  0.08842658  1
  F  F24  1  0.44492180  0.47432585  0.39406051  1
  F  F25  1  -0.47432585  -0.02940405  0.39406051  1
  F  F26  1  0.02940405  -0.44492180  0.39406051  1
  F  F27  1  -0.47432585  -0.44492180  -0.39406051  1
  F  F28  1  0.02940405  0.47432585  -0.39406051  1
  F  F29  1  0.44492180  -0.02940405  -0.39406051  1
  F  F30  1  0.33333333  0.66666667  0.91346114  1
  F  F31  1  0.33333333  0.66666667  0.08653886  1
  F  F32  1  0.45423264  0.57175739  0.11000522  1
  F  F33  1  0.42824261  0.88247525  0.11000522  1
  F  F34  1  0.11752475  0.54576736  0.11000522  1
  F  F35  1  0.42824261  0.54576736  0.88999478  1
  F  F36  1  0.11752475  0.57175739  0.88999478  1
  F  F37  1  0.45423264  0.88247525  0.88999478  1
  F  F38  1  0.00000000  0.00000000  0.00000000  1
  F  F39  1  0.92047749  0.74966444  0.33910951  1
  F  F40  1  0.25033556  0.17081305  0.33910951  1
  F  F41  1  0.82918695  0.07952251  0.33910951  1
  F  F42  1  0.25033556  0.07952251  0.66089049  1
  F  F43  1  0.82918695  0.74966444  0.66089049  1
  F  F44  1  0.92047749  0.17081305  0.66089049  1
  F  F45  1  0.37117961  0.98200597  0.95129922  1
  F  F46  1  0.01799403  0.38917363  0.95129922  1
  F  F47  1  0.61082637  0.62882039  0.95129922  1
  F  F48  1  0.01799403  0.62882039  0.04870078  1
  F  F49  1  0.61082637  0.98200597  0.04870078  1
  F  F50  1  0.37117961  0.38917363  0.04870078  1
  F  F51  1  0.00000000  0.00000000  0.66894548  1
  F  F52  1  0.00000000  0.00000000  0.33105452  1
  F  F53  1  0.66666667  0.33333333  0.50000000  1
  F  F54  1  0.79290383  0.03716844  0.05396745  1
  F  F55  1  0.96283156  0.75573540  0.05396745  1
  F  F56  1  0.24426460  0.20709617  0.05396745  1
  F  F57  1  0.96283156  0.20709617  0.94603255  1
  F  F58  1  0.24426460  0.03716844  0.94603255  1
  F  F59  1  0.79290383  0.75573540  0.94603255  1
  F  F60  1  0.66666667  0.33333333  0.00000000  1
  F  F61  1  0.17604826  0.16997863  0.52976844  1
  F  F62  1  0.83002137  0.00606963  0.52976844  1
  F  F63  1  0.99393037  0.82395174  0.52976844  1
  F  F64  1  0.83002137  0.82395174  0.47023156  1
  F  F65  1  0.99393037  0.16997863  0.47023156  1
  F  F66  1  0.17604826  0.00606963  0.47023156  1
  F  F67  1  0.33218667  0.78492722  0.39182555  1
  F  F68  1  0.21507278  0.54725944  0.39182555  1
  F  F69  1  0.45274056  0.66781333  0.39182555  1
  F  F70  1  0.21507278  0.66781333  0.60817445  1
  F  F71  1  0.45274056  0.78492722  0.60817445  1
  F  F72  1  0.33218667  0.54725944  0.60817445  1
  F  F73  1  0.07937064  0.40936945  0.69128365  1
  F  F74  1  0.59063055  0.67000119  0.69128365  1
  F  F75  1  0.32999881  0.92062936  0.69128365  1
  F  F76  1  0.59063055  0.92062936  0.30871635  1
  F  F77  1  0.32999881  0.40936945  0.30871635  1
  F  F78  1  0.07937064  0.67000119  0.30871635  1
  F  F79  1  0.26533901  0.49769999  0.43114216  1
  F  F80  1  0.50230001  0.76763902  0.43114216  1
  F  F81  1  0.23236098  0.73466099  0.43114216  1
  F  F82  1  0.50230001  0.73466099  0.56885784  1
  F  F83  1  0.23236098  0.49769999  0.56885784  1
  F  F84  1  0.26533901  0.76763902  0.56885784  1
  F  F85  1  0.26955687  0.73044313  0.50000000  1
  F  F86  1  0.26955687  0.53911374  0.50000000  1
  F  F87  1  0.46088626  0.73044313  0.50000000  1
  Li  Li88  1  0.34461048  0.36773544  0.08414772  1
  Li  Li89  1  0.63226456  0.97687505  0.08414772  1
  Li  Li90  1  0.02312495  0.65538952  0.08414772  1
  Li  Li91  1  0.63226456  0.65538952  0.91585228  1
  Li  Li92  1  0.02312495  0.36773544  0.91585228  1
  Li  Li93  1  0.34461048  0.97687505  0.91585228  1
  Li  Li94  1  0.00000000  0.00000000  0.78270450  1
  Li  Li95  1  0.00000000  0.00000000  0.21729550  1
  Li  Li96  1  0.33333333  0.66666667  0.67656280  1
  Li  Li97  1  0.33333333  0.66666667  0.32343720  1
  Li  Li98  1  0.67290820  0.73145982  0.18490640  1
  Li  Li99  1  0.26854018  0.94144838  0.18490640  1
  Li  Li100  1  0.05855162  0.32709180  0.18490640  1
  Li  Li101  1  0.26854018  0.32709180  0.81509360  1
  Li  Li102  1  0.05855162  0.73145982  0.81509360  1
  Li  Li103  1  0.67290820  0.94144838  0.81509360  1
