# generated using pymatgen
data_LiF
_symmetry_space_group_name_H-M   'P 1'
_cell_length_a   20.26704425
_cell_length_b   10.33007757
_cell_length_c   11.04461887
_cell_angle_alpha   90.00000000
_cell_angle_beta   90.00000000
_cell_angle_gamma   90.00000000
_symmetry_Int_Tables_number   1
_chemical_formula_structural   LiF
_chemical_formula_sum   'Li90 F90'
_cell_volume   2312.30294580
_cell_formula_units_Z   90
loop_
 _symmetry_equiv_pos_site_id
 _symmetry_equiv_pos_as_xyz
  1  'x, y, z'
loop_
 _atom_site_type_symbol
 _atom_site_label
 _atom_site_symmetry_multiplicity
 _atom_site_fract_x
 _atom_site_fract_y
 _atom_site_fract_z
 _atom_site_occupancy
  F  F0  1  0.00000000  0.00000000  0.00000000  1
  F  F1  1  0.50000000  0.50000000  0.00000000  1
  F  F2  1  0.07556977  0.80180085  0.00000000  1
  F  F3  1  0.92443023  0.19819915  0.00000000  1
  F  F4  1  0.42443023  0.30180085  0.00000000  1
  F  F5  1  0.57556977  0.69819915  0.00000000  1
  F  F6  1  0.78476074  0.07534941  0.50000000  1
  F  F7  1  0.21523926  0.92465059  0.50000000  1
  F  F8  1  0.71523926  0.57534941  0.50000000  1
  F  F9  1  0.28476074  0.42465059  0.50000000  1
  F  F10  1  0.00000000  0.00000000  0.62999741  1
  F  F11  1  0.50000000  0.50000000  0.37000259  1
  F  F12  1  0.00000000  0.00000000  0.37000259  1
  F  F13  1  0.50000000  0.50000000  0.62999741  1
  F  F14  1  0.32125164  0.21340233  0.70154233  1
  F  F15  1  0.67874836  0.78659767  0.70154233  1
  F  F16  1  0.17874836  0.71340233  0.29845767  1
  F  F17  1  0.82125164  0.28659767  0.29845767  1
  F  F18  1  0.67874836  0.78659767  0.29845767  1
  F  F19  1  0.32125164  0.21340233  0.29845767  1
  F  F20  1  0.82125164  0.28659767  0.70154233  1
  F  F21  1  0.17874836  0.71340233  0.70154233  1
  F  F22  1  0.63762785  0.96138191  0.64038653  1
  F  F23  1  0.36237215  0.03861809  0.64038653  1
  F  F24  1  0.86237215  0.46138191  0.35961347  1
  F  F25  1  0.13762785  0.53861809  0.35961347  1
  F  F26  1  0.36237215  0.03861809  0.35961347  1
  F  F27  1  0.63762785  0.96138191  0.35961347  1
  F  F28  1  0.13762785  0.53861809  0.64038653  1
  F  F29  1  0.86237215  0.46138191  0.64038653  1
  F  F30  1  0.77202973  0.02320091  0.88848973  1
  F  F31  1  0.22797027  0.97679909  0.88848973  1
  F  F32  1  0.72797027  0.52320091  0.11151027  1
  F  F33  1  0.27202973  0.47679909  0.11151027  1
  F  F34  1  0.22797027  0.97679909  0.11151027  1
  F  F35  1  0.77202973  0.02320091  0.11151027  1
  F  F36  1  0.27202973  0.47679909  0.88848973  1
  F  F37  1  0.72797027  0.52320091  0.88848973  1
  F  F38  1  0.08242797  0.98471196  0.38122644  1
  F  F39  1  0.91757203  0.01528804  0.38122644  1
  F  F40  1  0.41757203  0.48471196  0.61877356  1
  F  F41  1  0.58242797  0.51528804  0.61877356  1
  F  F42  1  0.91757203  0.01528804  0.61877356  1
  F  F43  1  0.08242797  0.98471196  0.61877356  1
  F  F44  1  0.58242797  0.51528804  0.38122644  1
  F  F45  1  0.41757203  0.48471196  0.38122644  1
  F  F46  1  0.00000000  0.50000000  0.50000000  1
  F  F47  1  0.50000000  0.00000000  0.50000000  1
  F  F48  1  0.00000000  0.50000000  0.89010283  1
  F  F49  1  0.50000000  0.00000000  0.10989717  1
  F  F50  1  0.00000000  0.50000000  0.10989717  1
  F  F51  1  0.50000000  0.00000000  0.89010283  1
  F  F52  1  0.89950949  0.05813336  0.00000000  1
  F  F53  1  0.10049051  0.94186664  0.00000000  1
  F  F54  1  0.60049051  0.55813336  0.00000000  1
  F  F55  1  0.39950949  0.44186664  0.00000000  1
  F  F56  1  0.56247726  0.43896644  0.00000000  1
  F  F57  1  0.43752274  0.56103356  -0.00000000  1
  F  F58  1  0.93752274  0.93896644  0.00000000  1
  F  F59  1  0.06247726  0.06103356  -0.00000000  1
  F  F60  1  0.00000000  0.00000000  0.50000000  1
  F  F61  1  0.50000000  0.50000000  0.50000000  1
  F  F62  1  0.57030757  0.98085849  0.50000000  1
  F  F63  1  0.42969243  0.01914151  0.50000000  1
  F  F64  1  0.92969243  0.48085849  0.50000000  1
  F  F65  1  0.07030757  0.51914151  0.50000000  1
  F  F66  1  0.51148747  0.30813349  0.20890056  1
  F  F67  1  0.48851253  0.69186651  0.20890056  1
  F  F68  1  0.98851253  0.80813349  0.79109944  1
  F  F69  1  0.01148747  0.19186651  0.79109944  1
  F  F70  1  0.48851253  0.69186651  0.79109944  1
  F  F71  1  0.51148747  0.30813349  0.79109944  1
  F  F72  1  0.01148747  0.19186651  0.20890056  1
  F  F73  1  0.98851253  0.80813349  0.20890056  1
  F  F74  1  0.30955983  0.60428993  0.22232052  1
  F  F75  1  0.69044017  0.39571007  0.22232052  1
  F  F76  1  0.19044017  0.10428993  0.77767948  1
  F  F77  1  0.80955983  0.89571007  0.77767948  1
  F  F78  1  0.69044017  0.39571007  0.77767948  1
  F  F79  1  0.30955983  0.60428993  0.77767948  1
  F  F80  1  0.80955983  0.89571007  0.22232052  1
  F  F81  1  0.19044017  0.10428993  0.22232052  1
  F  F82  1  0.24020409  0.52545325  0.00000000  1
  F  F83  1  0.75979591  0.47454675  0.00000000  1
  F  F84  1  0.25979591  0.02545325  0.00000000  1
  F  F85  1  0.74020409  0.97454675  0.00000000  1
  F  F86  1  0.28675723  0.02659869  0.50000000  1
  F  F87  1  0.71324277  0.97340131  0.50000000  1
  F  F88  1  0.21324277  0.52659869  0.50000000  1
  F  F89  1  0.78675723  0.47340131  0.50000000  1
  Li  Li90  1  0.38208897  0.96509712  0.57468705  1
  Li  Li91  1  -0.38208897  -0.96509712  0.57468705  1
  Li  Li92  1  0.11791103  1.46509712  -0.57468705  1
  Li  Li93  1  0.88208897  -0.46509712  -0.57468705  1
  Li  Li94  1  -0.38208897  -0.96509712  -0.57468705  1
  Li  Li95  1  0.38208897  0.96509712  -0.57468705  1
  Li  Li96  1  0.88208897  -0.46509712  0.57468705  1
  Li  Li97  1  0.11791103  1.46509712  0.57468705  1
  Li  Li98  1  0.56643548  0.42829105  0.28398913  1
  Li  Li99  1  0.43356452  0.57170895  0.28398913  1
  Li  Li100  1  0.93356452  0.92829105  0.71601087  1
  Li  Li101  1  0.06643548  0.07170895  0.71601087  1
  Li  Li102  1  0.43356452  0.57170895  0.71601087  1
  Li  Li103  1  0.56643548  0.42829105  0.71601087  1
  Li  Li104  1  0.06643548  0.07170895  0.28398913  1
  Li  Li105  1  0.93356452  0.92829105  0.28398913  1
  Li  Li106  1  0.00000000  0.50000000  0.00000000  1
  Li  Li107  1  0.50000000  0.00000000  0.00000000  1
  Li  Li108  1  0.05232770  0.79744884  0.07935954  1
  Li  Li109  1  0.94767230  0.20255116  0.07935954  1
  Li  Li110  1  0.44767230  0.29744884  0.92064046  1
  Li  Li111  1  0.55232770  0.70255116  0.92064046  1
  Li  Li112  1  0.94767230  0.20255116  0.92064046  1
  Li  Li113  1  0.05232770  0.79744884  0.92064046  1
  Li  Li114  1  0.55232770  0.70255116  0.07935954  1
  Li  Li115  1  0.44767230  0.29744884  0.07935954  1
  Li  Li116  1  0.65791365  0.95527706  0.50000000  1
  Li  Li117  1  0.34208635  0.04472294  0.50000000  1
  Li  Li118  1  0.84208635  0.45527706  0.50000000  1
  Li  Li119  1  0.15791365  0.54472294  0.50000000  1
  Li  Li120  1  0.73794994  0.94555317  0.11732949  1
  Li  Li121  1  0.26205006  0.05444683  0.11732949  1
  Li  Li122  1  0.76205006  0.44555317  0.88267051  1
  Li  Li123  1  0.23794994  0.55444683  0.88267051  1
  Li  Li124  1  0.26205006  0.05444683  0.88267051  1
  Li  Li125  1  0.73794994  0.94555317  0.88267051  1
  Li  Li126  1  0.23794994  0.55444683  0.11732949  1
  Li  Li127  1  0.76205006  0.44555317  0.11732949  1
  Li  Li128  1  0.00000000  0.00000000  0.76798663  1
  Li  Li129  1  0.50000000  0.50000000  0.23201337  1
  Li  Li130  1  0.00000000  0.00000000  0.23201337  1
  Li  Li131  1  0.50000000  0.50000000  0.76798663  1
  Li  Li132  1  0.97547629  0.09642441  0.34891922  1
  Li  Li133  1  0.02452371  0.90357559  0.34891922  1
  Li  Li134  1  0.52452371  0.59642441  0.65108078  1
  Li  Li135  1  0.47547629  0.40357559  0.65108078  1
  Li  Li136  1  0.02452371  0.90357559  0.65108078  1
  Li  Li137  1  0.97547629  0.09642441  0.65108078  1
  Li  Li138  1  0.47547629  0.40357559  0.34891922  1
  Li  Li139  1  0.52452371  0.59642441  0.34891922  1
  Li  Li140  1  0.75599236  0.93988519  0.68810648  1
  Li  Li141  1  0.24400764  0.06011481  0.68810648  1
  Li  Li142  1  0.74400764  0.43988519  0.31189352  1
  Li  Li143  1  0.25599236  0.56011481  0.31189352  1
  Li  Li144  1  0.24400764  0.06011481  0.31189352  1
  Li  Li145  1  0.75599236  0.93988519  0.31189352  1
  Li  Li146  1  0.25599236  0.56011481  0.68810648  1
  Li  Li147  1  0.74400764  0.43988519  0.68810648  1
  Li  Li148  1  0.87655119  0.33272174  0.66648865  1
  Li  Li149  1  0.12344881  0.66727826  0.66648865  1
  Li  Li150  1  0.62344881  0.83272174  0.33351135  1
  Li  Li151  1  0.37655119  0.16727826  0.33351135  1
  Li  Li152  1  0.12344881  0.66727826  0.33351135  1
  Li  Li153  1  0.87655119  0.33272174  0.33351135  1
  Li  Li154  1  0.37655119  0.16727826  0.66648865  1
  Li  Li155  1  0.62344881  0.83272174  0.66648865  1
  Li  Li156  1  0.00000000  0.50000000  0.69831243  1
  Li  Li157  1  0.50000000  0.00000000  0.30168757  1
  Li  Li158  1  0.00000000  0.50000000  0.30168757  1
  Li  Li159  1  0.50000000  0.00000000  0.69831243  1
  Li  Li160  1  0.39316585  0.28010018  0.27149178  1
  Li  Li161  1  0.60683415  0.71989982  0.27149178  1
  Li  Li162  1  0.10683415  0.78010018  0.72850822  1
  Li  Li163  1  0.89316585  0.21989982  0.72850822  1
  Li  Li164  1  0.60683415  0.71989982  0.72850822  1
  Li  Li165  1  0.39316585  0.28010018  0.72850822  1
  Li  Li166  1  0.89316585  0.21989982  0.27149178  1
  Li  Li167  1  0.10683415  0.78010018  0.27149178  1
  Li  Li168  1  0.71872069  0.33839463  0.50000000  1
  Li  Li169  1  0.28127931  0.66160537  0.50000000  1
  Li  Li170  1  0.78127931  0.83839463  0.50000000  1
  Li  Li171  1  0.21872069  0.16160537  0.50000000  1
  Li  Li172  1  0.72059188  0.65750545  0.00000000  1
  Li  Li173  1  0.27940812  0.34249455  -0.00000000  1
  Li  Li174  1  0.77940812  0.15750545  0.00000000  1
  Li  Li175  1  0.22059188  0.84249455  0.00000000  1
  Li  Li176  1  0.72096029  0.07488736  0.50000000  1
  Li  Li177  1  0.27903971  0.92511264  0.50000000  1
  Li  Li178  1  0.77903971  0.57488736  0.50000000  1
  Li  Li179  1  0.22096029  0.42511264  0.50000000  1
