# generated using pymatgen
data_Li3YAsP4
_symmetry_space_group_name_H-M   'P 1'
_cell_length_a   5.04154856
_cell_length_b   5.29843937
_cell_length_c   7.22833429
_cell_angle_alpha   95.00413356
_cell_angle_beta   100.67456306
_cell_angle_gamma   109.01396652
_symmetry_Int_Tables_number   1
_chemical_formula_structural   Li3YAsP4
_chemical_formula_sum   'Li3 Y1 As1 P4'
_cell_volume   177.11427042
_cell_formula_units_Z   1
loop_
 _symmetry_equiv_pos_site_id
 _symmetry_equiv_pos_as_xyz
  1  'x, y, z'
loop_
 _atom_site_type_symbol
 _atom_site_label
 _atom_site_symmetry_multiplicity
 _atom_site_fract_x
 _atom_site_fract_y
 _atom_site_fract_z
 _atom_site_occupancy
  Y  Y0  1  0.12500000  0.12500000  0.12500000  1
  P  P1  1  0.50000000  0.50000000  0.50000000  1
  P  P2  1  0.25000000  0.25000000  0.25000000  1
  P  P3  1  0.75000000  0.75000000  0.75000000  1
  P  P4  1  0.55877845  0.61709833  0.76633080  1
  As  As5  1  0.94806461  0.46390510  0.34519268  1
  Li  Li6  1  0.40438811  0.51425012  0.57493515  1
  Li  Li7  1  0.39924823  0.69800798  0.67037258  1
  Li  Li8  1  0.45087066  0.47837550  0.78325900  1
