# generated using pymatgen
data_LiF
_symmetry_space_group_name_H-M   'P 1'
_cell_length_a   14.99624264
_cell_length_b   14.99624264
_cell_length_c   2.19240067
_cell_angle_alpha   90.00000000
_cell_angle_beta   90.00000000
_cell_angle_gamma   120.00000000
_symmetry_Int_Tables_number   1
_chemical_formula_structural   LiF
_chemical_formula_sum   'Li18 F18'
_cell_volume   426.98780794
_cell_formula_units_Z   18
loop_
 _symmetry_equiv_pos_site_id
 _symmetry_equiv_pos_as_xyz
  1  'x, y, z'
loop_
 _atom_site_type_symbol
 _atom_site_label
 _atom_site_symmetry_multiplicity
 _atom_site_fract_x
 _atom_site_fract_y
 _atom_site_fract_z
 _atom_site_occupancy
  F  F0  1  0.70677173  0.70045663  0.94716122  1
  F  F1  1  0.29954337  0.00631510  0.94716122  1
  F  F2  1  0.99368490  0.29322827  0.94716122  1
  F  F3  1  0.29954337  0.29322827  0.05283878  1
  F  F4  1  0.99368490  0.70045663  0.05283878  1
  F  F5  1  0.70677173  0.00631510  0.05283878  1
  F  F6  1  0.19320023  0.72703602  0.97866188  1
  F  F7  1  0.27296398  0.46616422  0.97866188  1
  F  F8  1  0.53383578  0.80679977  0.97866188  1
  F  F9  1  0.27296398  0.80679977  0.02133812  1
  F  F10  1  0.53383578  0.72703602  0.02133812  1
  F  F11  1  0.19320023  0.46616422  0.02133812  1
  F  F12  1  0.24719910  0.25565935  0.17151732  1
  F  F13  1  0.74434065  0.99153975  0.17151732  1
  F  F14  1  0.00846025  0.75280090  0.17151732  1
  F  F15  1  0.74434065  0.75280090  0.82848268  1
  F  F16  1  0.00846025  0.25565935  0.82848268  1
  F  F17  1  0.24719910  0.99153975  0.82848268  1
  Li  Li18  1  0.33333333  0.66666667  0.00000000  1
  Li  Li19  1  0.04678505  0.95321495  0.00000000  1
  Li  Li20  1  0.04678505  0.09357009  0.00000000  1
  Li  Li21  1  0.90642991  0.95321495  0.00000000  1
  Li  Li22  1  0.64707546  0.11885864  0.27744306  1
  Li  Li23  1  -0.11885864  0.52821682  0.27744306  1
  Li  Li24  1  -0.52821682  -0.64707546  0.27744306  1
  Li  Li25  1  -0.11885864  -0.64707546  -0.27744306  1
  Li  Li26  1  -0.52821682  0.11885864  -0.27744306  1
  Li  Li27  1  0.64707546  0.52821682  -0.27744306  1
  Li  Li28  1  0.84571842  0.15428158  0.50000000  1
  Li  Li29  1  0.84571842  0.69143685  0.50000000  1
  Li  Li30  1  0.30856315  0.15428158  0.50000000  1
  Li  Li31  1  0.74254482  0.25745518  0.00000000  1
  Li  Li32  1  0.74254482  0.48508964  0.00000000  1
  Li  Li33  1  0.51491036  0.25745518  0.00000000  1
  Li  Li34  1  0.66666667  0.33333333  0.00000000  1
  Li  Li35  1  0.00000000  0.00000000  0.50000000  1
