# generated using pymatgen
data_Li2Si4Te3F12
_symmetry_space_group_name_H-M   'P 1'
_cell_length_a   8.33702297
_cell_length_b   8.92142373
_cell_length_c   12.01735209
_cell_angle_alpha   90.00000000
_cell_angle_beta   90.00000000
_cell_angle_gamma   90.00000000
_symmetry_Int_Tables_number   1
_chemical_formula_structural   Li2Si4Te3F12
_chemical_formula_sum   'Li8 Si16 Te12 F48'
_cell_volume   893.82798960
_cell_formula_units_Z   4
loop_
 _symmetry_equiv_pos_site_id
 _symmetry_equiv_pos_as_xyz
  1  'x, y, z'
loop_
 _atom_site_type_symbol
 _atom_site_label
 _atom_site_symmetry_multiplicity
 _atom_site_fract_x
 _atom_site_fract_y
 _atom_site_fract_z
 _atom_site_occupancy
  F  F0  1  0.25549993  0.33132853  0.14209268  1
  F  F1  1  0.74450007  0.66867147  0.14209268  1
  F  F2  1  0.24450007  0.83132853  0.35790732  1
  F  F3  1  0.75549993  0.16867147  0.35790732  1
  F  F4  1  0.74450007  0.66867147  0.85790732  1
  F  F5  1  0.25549993  0.33132853  0.85790732  1
  F  F6  1  0.75549993  0.16867147  0.64209268  1
  F  F7  1  0.24450007  0.83132853  0.64209268  1
  F  F8  1  0.72091456  0.70003366  0.00000000  1
  F  F9  1  0.27908544  0.29996634  0.00000000  1
  F  F10  1  0.77908544  0.20003366  0.50000000  1
  F  F11  1  0.22091456  0.79996634  0.50000000  1
  F  F12  1  0.69316764  0.33758723  0.28101867  1
  F  F13  1  0.30683236  0.66241277  0.28101867  1
  F  F14  1  0.80683236  0.83758723  0.21898133  1
  F  F15  1  0.19316764  0.16241277  0.21898133  1
  F  F16  1  0.30683236  0.66241277  0.71898133  1
  F  F17  1  0.69316764  0.33758723  0.71898133  1
  F  F18  1  0.19316764  0.16241277  0.78101867  1
  F  F19  1  0.80683236  0.83758723  0.78101867  1
  F  F20  1  0.46750043  0.73169628  0.95176352  1
  F  F21  1  0.53249957  0.26830372  0.95176352  1
  F  F22  1  0.03249957  0.23169628  0.54823648  1
  F  F23  1  0.96750043  0.76830372  0.54823648  1
  F  F24  1  0.53249957  0.26830372  0.04823648  1
  F  F25  1  0.46750043  0.73169628  0.04823648  1
  F  F26  1  0.96750043  0.76830372  0.45176352  1
  F  F27  1  0.03249957  0.23169628  0.45176352  1
  F  F28  1  0.68831432  0.30544942  0.00000000  1
  F  F29  1  0.31168568  0.69455058  0.00000000  1
  F  F30  1  0.81168568  0.80544942  0.50000000  1
  F  F31  1  0.18831432  0.19455058  0.50000000  1
  F  F32  1  0.52772191  0.02310188  0.25302807  1
  F  F33  1  0.47227809  0.97689812  0.25302807  1
  F  F34  1  0.97227809  0.52310188  0.24697193  1
  F  F35  1  0.02772191  0.47689812  0.24697193  1
  F  F36  1  0.47227809  0.97689812  0.74697193  1
  F  F37  1  0.52772191  0.02310188  0.74697193  1
  F  F38  1  0.02772191  0.47689812  0.75302807  1
  F  F39  1  0.97227809  0.52310188  0.75302807  1
  F  F40  1  0.52675706  0.64096338  0.10322377  1
  F  F41  1  0.47324294  0.35903662  0.10322377  1
  F  F42  1  0.97324294  0.14096338  0.39677623  1
  F  F43  1  0.02675706  0.85903662  0.39677623  1
  F  F44  1  0.47324294  0.35903662  0.89677623  1
  F  F45  1  0.52675706  0.64096338  0.89677623  1
  F  F46  1  0.02675706  0.85903662  0.60322377  1
  F  F47  1  0.97324294  0.14096338  0.60322377  1
  Li  Li48  1  0.12478717  0.50775074  0.33603574  1
  Li  Li49  1  0.87521283  0.49224926  0.33603574  1
  Li  Li50  1  0.37521283  0.00775074  0.16396426  1
  Li  Li51  1  0.62478717  0.99224926  0.16396426  1
  Li  Li52  1  0.87521283  0.49224926  0.66396426  1
  Li  Li53  1  0.12478717  0.50775074  0.66396426  1
  Li  Li54  1  0.62478717  0.99224926  0.83603574  1
  Li  Li55  1  0.37521283  0.00775074  0.83603574  1
  Si  Si56  1  0.00000000  0.50000000  0.50000000  1
  Si  Si57  1  0.50000000  0.00000000  -0.00000000  1
  Si  Si58  1  0.32180000  0.50168133  0.15557272  1
  Si  Si59  1  -0.32180000  -0.50168133  0.15557272  1
  Si  Si60  1  0.17820000  1.00168133  0.34442728  1
  Si  Si61  1  0.82180000  -0.00168133  0.34442728  1
  Si  Si62  1  -0.32180000  -0.50168133  -0.15557272  1
  Si  Si63  1  0.32180000  0.50168133  -0.15557272  1
  Si  Si64  1  0.82180000  -0.00168133  0.65557272  1
  Si  Si65  1  0.17820000  1.00168133  0.65557272  1
  Si  Si66  1  0.00000000  0.00000000  0.00000000  1
  Si  Si67  1  0.50000000  0.50000000  0.50000000  1
  Si  Si68  1  0.00000000  0.00000000  0.50000000  1
  Si  Si69  1  0.50000000  0.50000000  0.00000000  1
  Si  Si70  1  0.00000000  0.50000000  0.00000000  1
  Si  Si71  1  0.50000000  0.00000000  0.50000000  1
  Te  Te72  1  0.81824551  0.80178393  0.32581821  1
  Te  Te73  1  0.18175449  0.19821607  0.32581821  1
  Te  Te74  1  0.68175449  0.30178393  0.17418179  1
  Te  Te75  1  0.31824551  0.69821607  0.17418179  1
  Te  Te76  1  0.18175449  0.19821607  0.67418179  1
  Te  Te77  1  0.81824551  0.80178393  0.67418179  1
  Te  Te78  1  0.31824551  0.69821607  0.82581821  1
  Te  Te79  1  0.68175449  0.30178393  0.82581821  1
  Te  Te80  1  0.00000000  0.00000000  0.35246053  1
  Te  Te81  1  0.50000000  0.50000000  0.14753947  1
  Te  Te82  1  0.00000000  0.00000000  0.64753947  1
  Te  Te83  1  0.50000000  0.50000000  0.85246053  1
