# generated using pymatgen
data_LiF
_symmetry_space_group_name_H-M   'P 1'
_cell_length_a   8.89881957
_cell_length_b   7.48447288
_cell_length_c   8.73797641
_cell_angle_alpha   90.00000000
_cell_angle_beta   90.00000000
_cell_angle_gamma   90.00000000
_symmetry_Int_Tables_number   1
_chemical_formula_structural   LiF
_chemical_formula_sum   'Li24 F24'
_cell_volume   581.97521316
_cell_formula_units_Z   24
loop_
 _symmetry_equiv_pos_site_id
 _symmetry_equiv_pos_as_xyz
  1  'x, y, z'
loop_
 _atom_site_type_symbol
 _atom_site_label
 _atom_site_symmetry_multiplicity
 _atom_site_fract_x
 _atom_site_fract_y
 _atom_site_fract_z
 _atom_site_occupancy
  F  F0  1  0.53977573  0.85795792  0.04508564  1
  F  F1  1  0.96022427  0.14204208  0.54508564  1
  F  F2  1  0.46022427  0.35795792  0.95491436  1
  F  F3  1  0.03977573  0.64204208  0.45491436  1
  F  F4  1  0.46022427  0.14204208  0.95491436  1
  F  F5  1  0.03977573  0.85795792  0.45491436  1
  F  F6  1  0.53977573  0.64204208  0.04508564  1
  F  F7  1  0.96022427  0.35795792  0.54508564  1
  F  F8  1  0.60452631  0.97362206  0.28390980  1
  F  F9  1  0.89547369  0.02637794  0.78390980  1
  F  F10  1  0.39547369  0.47362206  0.71609020  1
  F  F11  1  0.10452631  0.52637794  0.21609020  1
  F  F12  1  0.39547369  0.02637794  0.71609020  1
  F  F13  1  0.10452631  0.97362206  0.21609020  1
  F  F14  1  0.60452631  0.52637794  0.28390980  1
  F  F15  1  0.89547369  0.47362206  0.78390980  1
  F  F16  1  0.05151252  0.58234074  0.36317693  1
  F  F17  1  0.44848748  0.41765926  0.86317693  1
  F  F18  1  0.94848748  0.08234074  0.63682307  1
  F  F19  1  0.55151252  0.91765926  0.13682307  1
  F  F20  1  0.94848748  0.41765926  0.63682307  1
  F  F21  1  0.55151252  0.58234074  0.13682307  1
  F  F22  1  0.05151252  0.91765926  0.36317693  1
  F  F23  1  0.44848748  0.08234074  0.86317693  1
  Li  Li24  1  0.27618990  0.25000000  0.41683220  1
  Li  Li25  1  0.22381010  0.75000000  0.91683220  1
  Li  Li26  1  0.72381010  0.75000000  0.58316780  1
  Li  Li27  1  0.77618990  0.25000000  0.08316780  1
  Li  Li28  1  0.11890968  0.25000000  0.05366852  1
  Li  Li29  1  0.38109032  0.75000000  0.55366852  1
  Li  Li30  1  0.88109032  0.75000000  0.94633148  1
  Li  Li31  1  0.61890968  0.25000000  0.44633148  1
  Li  Li32  1  0.80939665  0.25000000  0.53111350  1
  Li  Li33  1  0.69060335  0.75000000  0.03111350  1
  Li  Li34  1  0.19060335  0.75000000  0.46888650  1
  Li  Li35  1  0.30939665  0.25000000  0.96888650  1
  Li  Li36  1  0.79347684  0.38839343  0.91123472  1
  Li  Li37  1  -0.29347684  -0.38839343  1.41123472  1
  Li  Li38  1  -0.79347684  0.88839343  -0.91123472  1
  Li  Li39  1  1.29347684  0.11160657  -0.41123472  1
  Li  Li40  1  -0.79347684  -0.38839343  -0.91123472  1
  Li  Li41  1  1.29347684  0.38839343  -0.41123472  1
  Li  Li42  1  0.79347684  0.11160657  0.91123472  1
  Li  Li43  1  -0.29347684  0.88839343  1.41123472  1
  Li  Li44  1  0.00000000  0.00000000  0.50000000  1
  Li  Li45  1  0.50000000  0.00000000  0.00000000  1
  Li  Li46  1  0.00000000  0.50000000  0.50000000  1
  Li  Li47  1  0.50000000  0.50000000  0.00000000  1
