# generated using pymatgen
data_Li2Y2Sb2As4P
_symmetry_space_group_name_H-M   'P 1'
_cell_length_a   5.24737528
_cell_length_b   5.21347697
_cell_length_c   6.38536823
_cell_angle_alpha   93.75032238
_cell_angle_beta   96.10805976
_cell_angle_gamma   101.83392872
_symmetry_Int_Tables_number   1
_chemical_formula_structural   Li2Y2Sb2As4P
_chemical_formula_sum   'Li2 Y2 Sb2 As4 P1'
_cell_volume   169.31734691
_cell_formula_units_Z   1
loop_
 _symmetry_equiv_pos_site_id
 _symmetry_equiv_pos_as_xyz
  1  'x, y, z'
loop_
 _atom_site_type_symbol
 _atom_site_label
 _atom_site_symmetry_multiplicity
 _atom_site_fract_x
 _atom_site_fract_y
 _atom_site_fract_z
 _atom_site_occupancy
  P  P0  1  0.00000000  0.00000000  0.00000000  1
  As  As1  1  0.50000000  0.50000000  0.50000000  1
  As  As2  1  0.25000000  0.25000000  0.25000000  1
  As  As3  1  0.75000000  0.25000000  0.00000000  1
  As  As4  1  0.25000000  0.75000000  0.50000000  1
  Li  Li5  1  0.42664242  0.02451709  0.17097121  1
  Li  Li6  1  0.36279650  0.92466300  0.54210165  1
  Y  Y7  1  0.45220097  0.82761731  0.07200038  1
  Y  Y8  1  0.44379578  0.38554596  0.55325403  1
  Sb  Sb9  1  0.24065190  0.24840235  0.53829663  1
  Sb  Sb10  1  0.93430284  0.57489092  0.22597886  1
