# generated using pymatgen
data_LiF
_symmetry_space_group_name_H-M   'P 1'
_cell_length_a   10.12551876
_cell_length_b   10.12551876
_cell_length_c   11.77968562
_cell_angle_alpha   90.00000000
_cell_angle_beta   90.00000000
_cell_angle_gamma   120.00000000
_symmetry_Int_Tables_number   1
_chemical_formula_structural   LiF
_chemical_formula_sum   'Li41 F41'
_cell_volume   1045.92103341
_cell_formula_units_Z   41
loop_
 _symmetry_equiv_pos_site_id
 _symmetry_equiv_pos_as_xyz
  1  'x, y, z'
loop_
 _atom_site_type_symbol
 _atom_site_label
 _atom_site_symmetry_multiplicity
 _atom_site_fract_x
 _atom_site_fract_y
 _atom_site_fract_z
 _atom_site_occupancy
  F  F0  1  0.93272871  -0.00000000  0.93331859  1
  F  F1  1  0.00000000  0.93272871  0.93331859  1
  F  F2  1  0.06727129  0.06727129  0.93331859  1
  F  F3  1  0.93272871  -0.00000000  0.06668141  1
  F  F4  1  0.00000000  0.93272871  0.06668141  1
  F  F5  1  0.06727129  0.06727129  0.06668141  1
  F  F6  1  0.60042721  0.51904591  0.54066079  1
  F  F7  1  0.48095409  0.08138130  0.54066079  1
  F  F8  1  0.91861870  0.39957279  0.54066079  1
  F  F9  1  0.60042721  0.51904591  0.45933921  1
  F  F10  1  0.48095409  0.08138130  0.45933921  1
  F  F11  1  0.91861870  0.39957279  0.45933921  1
  F  F12  1  0.51904591  0.60042721  0.45933921  1
  F  F13  1  0.08138130  0.48095409  0.45933921  1
  F  F14  1  0.39957279  0.91861870  0.45933921  1
  F  F15  1  0.51904591  0.60042721  0.54066079  1
  F  F16  1  0.08138130  0.48095409  0.54066079  1
  F  F17  1  0.39957279  0.91861870  0.54066079  1
  F  F18  1  0.27108831  -0.00000000  0.50000000  1
  F  F19  1  0.00000000  0.27108831  0.50000000  1
  F  F20  1  0.72891169  0.72891169  0.50000000  1
  F  F21  1  0.94939074  -0.00000000  0.50000000  1
  F  F22  1  0.00000000  0.94939074  0.50000000  1
  F  F23  1  0.05060926  0.05060926  0.50000000  1
  F  F24  1  0.63635268  0.93401788  0.75210804  1
  F  F25  1  0.06598212  0.70233480  0.75210804  1
  F  F26  1  0.29766520  0.36364732  0.75210804  1
  F  F27  1  0.63635268  0.93401788  0.24789196  1
  F  F28  1  0.06598212  0.70233480  0.24789196  1
  F  F29  1  0.29766520  0.36364732  0.24789196  1
  F  F30  1  0.93401788  0.63635268  0.24789196  1
  F  F31  1  0.70233480  0.06598212  0.24789196  1
  F  F32  1  0.36364732  0.29766520  0.24789196  1
  F  F33  1  0.93401788  0.63635268  0.75210804  1
  F  F34  1  0.70233480  0.06598212  0.75210804  1
  F  F35  1  0.36364732  0.29766520  0.75210804  1
  F  F36  1  0.00000000  0.00000000  0.69466273  1
  F  F37  1  0.00000000  0.00000000  0.30533727  1
  F  F38  1  0.61556769  -0.00000000  0.50000000  1
  F  F39  1  0.00000000  0.61556769  0.50000000  1
  F  F40  1  0.38443231  0.38443231  0.50000000  1
  Li  Li41  1  0.56417364  0.00000000  0.75873069  1
  Li  Li42  1  0.00000000  0.56417364  0.75873069  1
  Li  Li43  1  0.43582636  0.43582636  0.75873069  1
  Li  Li44  1  0.56417364  0.00000000  0.24126931  1
  Li  Li45  1  0.00000000  0.56417364  0.24126931  1
  Li  Li46  1  0.43582636  0.43582636  0.24126931  1
  Li  Li47  1  0.00000000  0.00000000  0.15211064  1
  Li  Li48  1  0.00000000  0.00000000  0.84788936  1
  Li  Li49  1  0.72969427  0.62104786  0.39389672  1
  Li  Li50  1  -0.62104786  0.10864640  0.39389672  1
  Li  Li51  1  -0.10864640  -0.72969427  0.39389672  1
  Li  Li52  1  0.72969427  0.62104786  -0.39389672  1
  Li  Li53  1  -0.62104786  0.10864640  -0.39389672  1
  Li  Li54  1  -0.10864640  -0.72969427  -0.39389672  1
  Li  Li55  1  0.62104786  0.72969427  -0.39389672  1
  Li  Li56  1  0.10864640  -0.62104786  -0.39389672  1
  Li  Li57  1  -0.72969427  -0.10864640  -0.39389672  1
  Li  Li58  1  0.62104786  0.72969427  0.39389672  1
  Li  Li59  1  0.10864640  -0.62104786  0.39389672  1
  Li  Li60  1  -0.72969427  -0.10864640  0.39389672  1
  Li  Li61  1  0.09129606  0.26715447  0.83074620  1
  Li  Li62  1  0.73284553  0.82414159  0.83074620  1
  Li  Li63  1  0.17585841  0.90870394  0.83074620  1
  Li  Li64  1  0.09129606  0.26715447  0.16925380  1
  Li  Li65  1  0.73284553  0.82414159  0.16925380  1
  Li  Li66  1  0.17585841  0.90870394  0.16925380  1
  Li  Li67  1  0.26715447  0.09129606  0.16925380  1
  Li  Li68  1  0.82414159  0.73284553  0.16925380  1
  Li  Li69  1  0.90870394  0.17585841  0.16925380  1
  Li  Li70  1  0.26715447  0.09129606  0.83074620  1
  Li  Li71  1  0.82414159  0.73284553  0.83074620  1
  Li  Li72  1  0.90870394  0.17585841  0.83074620  1
  Li  Li73  1  0.72860307  0.51948643  0.00000000  1
  Li  Li74  1  0.48051357  0.20911664  0.00000000  1
  Li  Li75  1  0.79088336  0.27139693  0.00000000  1
  Li  Li76  1  0.51948643  0.72860307  0.00000000  1
  Li  Li77  1  0.20911664  0.48051357  0.00000000  1
  Li  Li78  1  0.27139693  0.79088336  0.00000000  1
  Li  Li79  1  0.00000000  0.00000000  0.00000000  1
  Li  Li80  1  0.33333333  0.66666667  0.00000000  1
  Li  Li81  1  0.66666667  0.33333333  0.00000000  1
