# generated using pymatgen
data_LiF
_symmetry_space_group_name_H-M   'P 1'
_cell_length_a   12.04958171
_cell_length_b   12.04958171
_cell_length_c   7.89451950
_cell_angle_alpha   90.00000000
_cell_angle_beta   90.00000000
_cell_angle_gamma   120.00000000
_symmetry_Int_Tables_number   1
_chemical_formula_structural   LiF
_chemical_formula_sum   'Li40 F40'
_cell_volume   992.65943671
_cell_formula_units_Z   40
loop_
 _symmetry_equiv_pos_site_id
 _symmetry_equiv_pos_as_xyz
  1  'x, y, z'
loop_
 _atom_site_type_symbol
 _atom_site_label
 _atom_site_symmetry_multiplicity
 _atom_site_fract_x
 _atom_site_fract_y
 _atom_site_fract_z
 _atom_site_occupancy
  F  F0  1  0.48372803  0.67456692  0.92978178  1
  F  F1  1  0.32543308  0.80916111  0.92978178  1
  F  F2  1  0.19083889  0.51627197  0.92978178  1
  F  F3  1  0.32543308  0.51627197  0.07021822  1
  F  F4  1  0.19083889  0.67456692  0.07021822  1
  F  F5  1  0.48372803  0.80916111  0.07021822  1
  F  F6  1  0.42455341  0.03889272  0.38920247  1
  F  F7  1  0.96110728  0.38566069  0.38920247  1
  F  F8  1  0.61433931  0.57544659  0.38920247  1
  F  F9  1  0.96110728  0.57544659  0.61079753  1
  F  F10  1  0.61433931  0.03889272  0.61079753  1
  F  F11  1  0.42455341  0.38566069  0.61079753  1
  F  F12  1  0.33333333  0.66666667  0.50000000  1
  F  F13  1  0.87612508  0.98858230  0.17387083  1
  F  F14  1  0.01141770  0.88754278  0.17387083  1
  F  F15  1  0.11245722  0.12387492  0.17387083  1
  F  F16  1  0.01141770  0.12387492  0.82612917  1
  F  F17  1  0.11245722  0.98858230  0.82612917  1
  F  F18  1  0.87612508  0.88754278  0.82612917  1
  F  F19  1  0.47435336  0.06194533  0.79715177  1
  F  F20  1  0.93805467  0.41240803  0.79715177  1
  F  F21  1  0.58759197  0.52564664  0.79715177  1
  F  F22  1  0.93805467  0.52564664  0.20284823  1
  F  F23  1  0.58759197  0.06194533  0.20284823  1
  F  F24  1  0.47435336  0.41240803  0.20284823  1
  F  F25  1  0.75283500  0.03419671  0.27288313  1
  F  F26  1  0.96580329  0.71863829  0.27288313  1
  F  F27  1  0.28136171  0.24716500  0.27288313  1
  F  F28  1  0.96580329  0.24716500  0.72711687  1
  F  F29  1  0.28136171  0.03419671  0.72711687  1
  F  F30  1  0.75283500  0.71863829  0.72711687  1
  F  F31  1  0.06791747  0.93208253  -0.00000000  1
  F  F32  1  0.06791747  0.13583494  0.00000000  1
  F  F33  1  0.86416506  0.93208253  0.00000000  1
  F  F34  1  0.17031215  0.10797080  0.84646763  1
  F  F35  1  0.89202920  0.06234135  0.84646763  1
  F  F36  1  0.93765865  0.82968785  0.84646763  1
  F  F37  1  0.89202920  0.82968785  0.15353237  1
  F  F38  1  0.93765865  0.10797080  0.15353237  1
  F  F39  1  0.17031215  0.06234135  0.15353237  1
  Li  Li40  1  0.66666667  0.33333333  0.00000000  1
  Li  Li41  1  0.18028602  0.81971398  0.00000000  1
  Li  Li42  1  0.18028602  0.36057204  0.00000000  1
  Li  Li43  1  0.63942796  0.81971398  0.00000000  1
  Li  Li44  1  0.73360006  0.26639994  0.00000000  1
  Li  Li45  1  0.73360006  0.46720012  0.00000000  1
  Li  Li46  1  0.53279988  0.26639994  0.00000000  1
  Li  Li47  1  0.50697301  0.51698949  0.63219217  1
  Li  Li48  1  -0.51698949  -0.01001649  0.63219217  1
  Li  Li49  1  0.01001649  -0.50697301  0.63219217  1
  Li  Li50  1  -0.51698949  -0.50697301  -0.63219217  1
  Li  Li51  1  0.01001649  0.51698949  -0.63219217  1
  Li  Li52  1  0.50697301  -0.01001649  -0.63219217  1
  Li  Li53  1  0.00365882  0.38545845  0.89710362  1
  Li  Li54  1  0.61454155  0.61820038  0.89710362  1
  Li  Li55  1  0.38179962  0.99634118  0.89710362  1
  Li  Li56  1  0.61454155  0.99634118  0.10289638  1
  Li  Li57  1  0.38179962  0.38545845  0.10289638  1
  Li  Li58  1  0.00365882  0.61820038  0.10289638  1
  Li  Li59  1  0.33333333  0.66666667  0.00000000  1
  Li  Li60  1  0.37973461  0.09368498  0.52365898  1
  Li  Li61  1  0.90631502  0.28604963  0.52365898  1
  Li  Li62  1  0.71395037  0.62026539  0.52365898  1
  Li  Li63  1  0.90631502  0.62026539  0.47634102  1
  Li  Li64  1  0.71395037  0.09368498  0.47634102  1
  Li  Li65  1  0.37973461  0.28604963  0.47634102  1
  Li  Li66  1  0.95086097  0.22006899  0.16219412  1
  Li  Li67  1  0.77993101  0.73079199  0.16219412  1
  Li  Li68  1  0.26920801  0.04913903  0.16219412  1
  Li  Li69  1  0.77993101  0.04913903  0.83780588  1
  Li  Li70  1  0.26920801  0.22006899  0.83780588  1
  Li  Li71  1  0.95086097  0.73079199  0.83780588  1
  Li  Li72  1  0.48444812  0.14354085  0.33468036  1
  Li  Li73  1  0.85645915  0.34090727  0.33468036  1
  Li  Li74  1  0.65909273  0.51555188  0.33468036  1
  Li  Li75  1  0.85645915  0.51555188  0.66531964  1
  Li  Li76  1  0.65909273  0.14354085  0.66531964  1
  Li  Li77  1  0.48444812  0.34090727  0.66531964  1
  Li  Li78  1  0.00000000  0.00000000  0.91400963  1
  Li  Li79  1  0.00000000  0.00000000  0.08599037  1
