# generated using pymatgen
data_LiF
_symmetry_space_group_name_H-M   'P 1'
_cell_length_a   9.54470303
_cell_length_b   4.84549773
_cell_length_c   14.74689077
_cell_angle_alpha   90.00000000
_cell_angle_beta   90.00000000
_cell_angle_gamma   90.00000000
_symmetry_Int_Tables_number   1
_chemical_formula_structural   LiF
_chemical_formula_sum   'Li36 F36'
_cell_volume   682.02654514
_cell_formula_units_Z   36
loop_
 _symmetry_equiv_pos_site_id
 _symmetry_equiv_pos_as_xyz
  1  'x, y, z'
loop_
 _atom_site_type_symbol
 _atom_site_label
 _atom_site_symmetry_multiplicity
 _atom_site_fract_x
 _atom_site_fract_y
 _atom_site_fract_z
 _atom_site_occupancy
  F  F0  1  0.71185431  0.84601538  0.03054973  1
  F  F1  1  0.78814569  0.15398462  0.53054973  1
  F  F2  1  0.28814569  0.34601538  0.96945027  1
  F  F3  1  0.21185431  0.65398462  0.46945027  1
  F  F4  1  0.28814569  0.15398462  0.96945027  1
  F  F5  1  0.21185431  0.84601538  0.46945027  1
  F  F6  1  0.71185431  0.65398462  0.03054973  1
  F  F7  1  0.78814569  0.34601538  0.53054973  1
  F  F8  1  0.48088164  0.25000000  0.40870231  1
  F  F9  1  0.01911836  0.75000000  0.90870231  1
  F  F10  1  0.51911836  0.75000000  0.59129769  1
  F  F11  1  0.98088164  0.25000000  0.09129769  1
  F  F12  1  0.25915084  0.42923374  0.11244860  1
  F  F13  1  0.24084916  0.57076626  0.61244860  1
  F  F14  1  0.74084916  0.92923374  0.88755140  1
  F  F15  1  0.75915084  0.07076626  0.38755140  1
  F  F16  1  0.74084916  0.57076626  0.88755140  1
  F  F17  1  0.75915084  0.42923374  0.38755140  1
  F  F18  1  0.25915084  0.07076626  0.11244860  1
  F  F19  1  0.24084916  0.92923374  0.61244860  1
  F  F20  1  0.51220037  0.65461714  0.32996748  1
  F  F21  1  0.98779963  0.34538286  0.82996748  1
  F  F22  1  0.48779963  0.15461714  0.67003252  1
  F  F23  1  0.01220037  0.84538286  0.17003252  1
  F  F24  1  0.48779963  0.34538286  0.67003252  1
  F  F25  1  0.01220037  0.65461714  0.17003252  1
  F  F26  1  0.51220037  0.84538286  0.32996748  1
  F  F27  1  0.98779963  0.15461714  0.82996748  1
  F  F28  1  0.44096782  0.25000000  0.02662531  1
  F  F29  1  0.05903218  0.75000000  0.52662531  1
  F  F30  1  0.55903218  0.75000000  0.97337469  1
  F  F31  1  0.94096782  0.25000000  0.47337469  1
  F  F32  1  0.44852826  0.25000000  0.59092860  1
  F  F33  1  0.05147174  0.75000000  0.09092860  1
  F  F34  1  0.55147174  0.75000000  0.40907140  1
  F  F35  1  0.94852826  0.25000000  0.90907140  1
  Li  Li36  1  0.74807824  0.10924936  0.00523541  1
  Li  Li37  1  -0.24807824  -0.10924936  0.50523541  1
  Li  Li38  1  -0.74807824  0.60924936  -0.00523541  1
  Li  Li39  1  1.24807824  0.39075064  0.49476459  1
  Li  Li40  1  -0.74807824  -0.10924936  -0.00523541  1
  Li  Li41  1  1.24807824  0.10924936  0.49476459  1
  Li  Li42  1  0.74807824  0.39075064  0.00523541  1
  Li  Li43  1  -0.24807824  0.60924936  0.50523541  1
  Li  Li44  1  0.60971199  0.25000000  0.68328440  1
  Li  Li45  1  0.89028801  0.75000000  0.18328440  1
  Li  Li46  1  0.39028801  0.75000000  0.31671560  1
  Li  Li47  1  0.10971199  0.25000000  0.81671560  1
  Li  Li48  1  0.60342220  0.25000000  0.59209319  1
  Li  Li49  1  0.89657780  0.75000000  0.09209319  1
  Li  Li50  1  0.39657780  0.75000000  0.40790681  1
  Li  Li51  1  0.10342220  0.25000000  0.90790681  1
  Li  Li52  1  0.54790724  0.99716330  0.81679298  1
  Li  Li53  1  0.95209276  0.00283670  0.31679298  1
  Li  Li54  1  0.45209276  0.49716330  0.18320702  1
  Li  Li55  1  0.04790724  0.50283670  0.68320702  1
  Li  Li56  1  0.45209276  0.00283670  0.18320702  1
  Li  Li57  1  0.04790724  0.99716330  0.68320702  1
  Li  Li58  1  0.54790724  0.50283670  0.81679298  1
  Li  Li59  1  0.95209276  0.49716330  0.31679298  1
  Li  Li60  1  0.41264023  0.25000000  0.69745853  1
  Li  Li61  1  0.08735977  0.75000000  0.19745853  1
  Li  Li62  1  0.58735977  0.75000000  0.30254147  1
  Li  Li63  1  0.91264023  0.25000000  0.80254147  1
  Li  Li64  1  0.00000000  0.00000000  0.50000000  1
  Li  Li65  1  0.50000000  0.00000000  0.00000000  1
  Li  Li66  1  0.00000000  0.50000000  0.50000000  1
  Li  Li67  1  0.50000000  0.50000000  -0.00000000  1
  Li  Li68  1  0.00000000  0.00000000  0.00000000  1
  Li  Li69  1  0.50000000  0.00000000  0.50000000  1
  Li  Li70  1  0.00000000  0.50000000  0.00000000  1
  Li  Li71  1  0.50000000  0.50000000  0.50000000  1
