# generated using pymatgen
data_LiF
_symmetry_space_group_name_H-M   'P 1'
_cell_length_a   4.94612776
_cell_length_b   4.94612776
_cell_length_c   24.16679802
_cell_angle_alpha   90.00000000
_cell_angle_beta   90.00000000
_cell_angle_gamma   120.00000000
_symmetry_Int_Tables_number   1
_chemical_formula_structural   LiF
_chemical_formula_sum   'Li22 F22'
_cell_volume   512.01231302
_cell_formula_units_Z   22
loop_
 _symmetry_equiv_pos_site_id
 _symmetry_equiv_pos_as_xyz
  1  'x, y, z'
loop_
 _atom_site_type_symbol
 _atom_site_label
 _atom_site_symmetry_multiplicity
 _atom_site_fract_x
 _atom_site_fract_y
 _atom_site_fract_z
 _atom_site_occupancy
  F  F0  1  0.66666667  0.33333333  0.25000000  1
  F  F1  1  0.33333333  0.66666667  0.75000000  1
  F  F2  1  0.00000000  0.00000000  0.25000000  1
  F  F3  1  0.00000000  0.00000000  0.75000000  1
  F  F4  1  0.19886377  0.28631519  0.98788226  1
  F  F5  1  -0.28631519  -0.08745142  0.98788226  1
  F  F6  1  0.08745142  -0.19886377  0.98788226  1
  F  F7  1  -0.19886377  -0.28631519  1.48788226  1
  F  F8  1  0.28631519  0.08745142  1.48788226  1
  F  F9  1  -0.08745142  0.19886377  1.48788226  1
  F  F10  1  -0.19886377  -0.28631519  -0.98788226  1
  F  F11  1  0.28631519  0.08745142  -0.98788226  1
  F  F12  1  -0.08745142  0.19886377  -0.98788226  1
  F  F13  1  0.19886377  0.28631519  -0.48788226  1
  F  F14  1  -0.28631519  -0.08745142  -0.48788226  1
  F  F15  1  0.08745142  -0.19886377  -0.48788226  1
  F  F16  1  0.50000000  0.00000000  0.00000000  1
  F  F17  1  0.00000000  0.50000000  0.00000000  1
  F  F18  1  0.50000000  0.50000000  0.00000000  1
  F  F19  1  0.50000000  0.00000000  0.50000000  1
  F  F20  1  0.00000000  0.50000000  0.50000000  1
  F  F21  1  0.50000000  0.50000000  0.50000000  1
  Li  Li22  1  0.33333333  0.66666667  0.85466801  1
  Li  Li23  1  0.66666667  0.33333333  0.35466801  1
  Li  Li24  1  0.66666667  0.33333333  0.14533199  1
  Li  Li25  1  0.33333333  0.66666667  0.64533199  1
  Li  Li26  1  0.13185783  0.83679136  0.59954666  1
  Li  Li27  1  0.16320864  0.29506647  0.59954666  1
  Li  Li28  1  0.70493353  0.86814217  0.59954666  1
  Li  Li29  1  0.86814217  0.16320864  0.09954666  1
  Li  Li30  1  0.83679136  0.70493353  0.09954666  1
  Li  Li31  1  0.29506647  0.13185783  0.09954666  1
  Li  Li32  1  0.86814217  0.16320864  0.40045334  1
  Li  Li33  1  0.83679136  0.70493353  0.40045334  1
  Li  Li34  1  0.29506647  0.13185783  0.40045334  1
  Li  Li35  1  0.13185783  0.83679136  0.90045334  1
  Li  Li36  1  0.16320864  0.29506647  0.90045334  1
  Li  Li37  1  0.70493353  0.86814217  0.90045334  1
  Li  Li38  1  0.80902233  0.04798043  0.25000000  1
  Li  Li39  1  0.95201957  0.76104189  0.25000000  1
  Li  Li40  1  0.23895811  0.19097767  0.25000000  1
  Li  Li41  1  0.19097767  0.95201957  0.75000000  1
  Li  Li42  1  0.04798043  0.23895811  0.75000000  1
  Li  Li43  1  0.76104189  0.80902233  0.75000000  1
