# generated using pymatgen
data_LiF
_symmetry_space_group_name_H-M   'P 1'
_cell_length_a   11.33432531
_cell_length_b   11.33432531
_cell_length_c   6.82931636
_cell_angle_alpha   90.00000000
_cell_angle_beta   90.00000000
_cell_angle_gamma   120.00000000
_symmetry_Int_Tables_number   1
_chemical_formula_structural   LiF
_chemical_formula_sum   'Li54 F54'
_cell_volume   759.79986073
_cell_formula_units_Z   54
loop_
 _symmetry_equiv_pos_site_id
 _symmetry_equiv_pos_as_xyz
  1  'x, y, z'
loop_
 _atom_site_type_symbol
 _atom_site_label
 _atom_site_symmetry_multiplicity
 _atom_site_fract_x
 _atom_site_fract_y
 _atom_site_fract_z
 _atom_site_occupancy
  F  F0  1  0.83736394  0.00390056  0.38751907  1
  F  F1  1  0.99609944  0.83346338  0.38751907  1
  F  F2  1  0.16653662  0.16263606  0.38751907  1
  F  F3  1  0.00390056  0.83736394  0.11248093  1
  F  F4  1  0.83346338  0.99609944  0.11248093  1
  F  F5  1  0.16263606  0.16653662  0.11248093  1
  F  F6  1  0.16263606  0.99609944  0.61248093  1
  F  F7  1  0.00390056  0.16653662  0.61248093  1
  F  F8  1  0.83346338  0.83736394  0.61248093  1
  F  F9  1  0.99609944  0.16263606  0.88751907  1
  F  F10  1  0.16653662  0.00390056  0.88751907  1
  F  F11  1  0.83736394  0.83346338  0.88751907  1
  F  F12  1  0.50403061  0.33723390  0.72085241  1
  F  F13  1  0.66276610  0.16679671  0.72085241  1
  F  F14  1  0.83320329  0.49596939  0.72085241  1
  F  F15  1  0.67056723  0.17069727  0.44581426  1
  F  F16  1  0.50013004  0.32943277  0.44581426  1
  F  F17  1  0.82930273  0.49986996  0.44581426  1
  F  F18  1  0.82930273  0.32943277  0.94581426  1
  F  F19  1  0.67056723  0.49986996  0.94581426  1
  F  F20  1  0.50013004  0.17069727  0.94581426  1
  F  F21  1  0.66276610  0.49596939  0.22085241  1
  F  F22  1  0.83320329  0.33723390  0.22085241  1
  F  F23  1  0.50403061  0.16679671  0.22085241  1
  F  F24  1  0.17069727  0.67056723  0.05418574  1
  F  F25  1  0.32943277  0.50013004  0.05418574  1
  F  F26  1  0.49986996  0.82930273  0.05418574  1
  F  F27  1  0.33723390  0.50403061  0.77914759  1
  F  F28  1  0.16679671  0.66276610  0.77914759  1
  F  F29  1  0.49596939  0.83320329  0.77914759  1
  F  F30  1  0.49596939  0.66276610  0.27914759  1
  F  F31  1  0.33723390  0.83320329  0.27914759  1
  F  F32  1  0.16679671  0.50403061  0.27914759  1
  F  F33  1  0.32943277  0.82930273  0.55418574  1
  F  F34  1  0.49986996  0.67056723  0.55418574  1
  F  F35  1  0.17069727  0.50013004  0.55418574  1
  F  F36  1  0.00000000  0.00000000  0.62055318  1
  F  F37  1  0.00000000  0.00000000  0.87944682  1
  F  F38  1  0.00000000  0.00000000  0.37944682  1
  F  F39  1  0.00000000  0.00000000  0.12055318  1
  F  F40  1  0.66666667  0.33333333  0.95388652  1
  F  F41  1  0.66666667  0.33333333  0.21278015  1
  F  F42  1  0.66666667  0.33333333  0.71278015  1
  F  F43  1  0.66666667  0.33333333  0.45388652  1
  F  F44  1  0.33333333  0.66666667  0.28721985  1
  F  F45  1  0.33333333  0.66666667  0.54611348  1
  F  F46  1  0.33333333  0.66666667  0.04611348  1
  F  F47  1  0.33333333  0.66666667  0.78721985  1
  F  F48  1  0.00000000  0.00000000  0.00000000  1
  F  F49  1  0.00000000  0.00000000  0.50000000  1
  F  F50  1  0.66666667  0.33333333  0.33333333  1
  F  F51  1  0.66666667  0.33333333  0.83333333  1
  F  F52  1  0.33333333  0.66666667  0.66666667  1
  F  F53  1  0.33333333  0.66666667  0.16666667  1
  Li  Li54  1  0.70769061  -0.00000000  0.25000000  1
  Li  Li55  1  0.00000000  0.70769061  0.25000000  1
  Li  Li56  1  0.29230939  0.29230939  0.25000000  1
  Li  Li57  1  0.29230939  0.00000000  0.75000000  1
  Li  Li58  1  0.00000000  0.29230939  0.75000000  1
  Li  Li59  1  0.70769061  0.70769061  0.75000000  1
  Li  Li60  1  0.37435728  0.33333333  0.58333333  1
  Li  Li61  1  0.66666667  0.04102394  0.58333333  1
  Li  Li62  1  0.95897606  0.62564272  0.58333333  1
  Li  Li63  1  0.95897606  0.33333333  0.08333333  1
  Li  Li64  1  0.66666667  0.62564272  0.08333333  1
  Li  Li65  1  0.37435728  0.04102394  0.08333333  1
  Li  Li66  1  0.04102394  0.66666667  0.91666667  1
  Li  Li67  1  0.33333333  0.37435728  0.91666667  1
  Li  Li68  1  0.62564272  0.95897606  0.91666667  1
  Li  Li69  1  0.62564272  0.66666667  0.41666667  1
  Li  Li70  1  0.33333333  0.95897606  0.41666667  1
  Li  Li71  1  0.04102394  0.37435728  0.41666667  1
  Li  Li72  1  0.25712701  0.06521576  0.93407920  1
  Li  Li73  1  -0.06521576  0.19191125  0.93407920  1
  Li  Li74  1  -0.19191125  -0.25712701  0.93407920  1
  Li  Li75  1  0.06521576  0.25712701  -0.43407920  1
  Li  Li76  1  0.19191125  -0.06521576  -0.43407920  1
  Li  Li77  1  -0.25712701  -0.19191125  -0.43407920  1
  Li  Li78  1  -0.25712701  -0.06521576  -0.93407920  1
  Li  Li79  1  0.06521576  -0.19191125  -0.93407920  1
  Li  Li80  1  0.19191125  0.25712701  -0.93407920  1
  Li  Li81  1  -0.06521576  -0.25712701  1.43407920  1
  Li  Li82  1  -0.19191125  0.06521576  1.43407920  1
  Li  Li83  1  0.25712701  0.19191125  1.43407920  1
  Li  Li84  1  0.92379368  0.39854909  1.26741254  1
  Li  Li85  1  0.60145091  0.52524459  1.26741254  1
  Li  Li86  1  0.47475541  0.07620632  1.26741254  1
  Li  Li87  1  0.73188242  0.59046035  -0.10074587  1
  Li  Li88  1  0.85857792  0.26811758  -0.10074587  1
  Li  Li89  1  0.40953965  0.14142208  -0.10074587  1
  Li  Li90  1  0.40953965  0.26811758  -0.60074587  1
  Li  Li91  1  0.73188242  0.14142208  -0.60074587  1
  Li  Li92  1  0.85857792  0.59046035  -0.60074587  1
  Li  Li93  1  0.60145091  0.07620632  1.76741254  1
  Li  Li94  1  0.47475541  0.39854909  1.76741254  1
  Li  Li95  1  0.92379368  0.52524459  1.76741254  1
  Li  Li96  1  0.59046035  0.73188242  1.60074587  1
  Li  Li97  1  0.26811758  0.85857792  1.60074587  1
  Li  Li98  1  0.14142208  0.40953965  1.60074587  1
  Li  Li99  1  0.39854909  0.92379368  0.23258746  1
  Li  Li100  1  0.52524459  0.60145091  0.23258746  1
  Li  Li101  1  0.07620632  0.47475541  0.23258746  1
  Li  Li102  1  0.07620632  0.60145091  -0.26741254  1
  Li  Li103  1  0.39854909  0.47475541  -0.26741254  1
  Li  Li104  1  0.52524459  0.92379368  -0.26741254  1
  Li  Li105  1  0.26811758  0.40953965  2.10074587  1
  Li  Li106  1  0.14142208  0.73188242  2.10074587  1
  Li  Li107  1  0.59046035  0.85857792  2.10074587  1
