# generated using pymatgen
data_LiF
_symmetry_space_group_name_H-M   'P 1'
_cell_length_a   5.97875104
_cell_length_b   8.73592712
_cell_length_c   4.88981402
_cell_angle_alpha   90.00000000
_cell_angle_beta   90.00000000
_cell_angle_gamma   90.00000000
_symmetry_Int_Tables_number   1
_chemical_formula_structural   LiF
_chemical_formula_sum   'Li12 F12'
_cell_volume   255.39466054
_cell_formula_units_Z   12
loop_
 _symmetry_equiv_pos_site_id
 _symmetry_equiv_pos_as_xyz
  1  'x, y, z'
loop_
 _atom_site_type_symbol
 _atom_site_label
 _atom_site_symmetry_multiplicity
 _atom_site_fract_x
 _atom_site_fract_y
 _atom_site_fract_z
 _atom_site_occupancy
  F  F0  1  0.54264983  0.90578817  0.59392405  1
  F  F1  1  -0.54264983  -0.90578817  0.59392405  1
  F  F2  1  -0.04264983  1.40578817  -0.09392405  1
  F  F3  1  1.04264983  -0.40578817  -0.09392405  1
  F  F4  1  -0.54264983  -0.90578817  -0.59392405  1
  F  F5  1  0.54264983  0.90578817  -0.59392405  1
  F  F6  1  1.04264983  -0.40578817  1.09392405  1
  F  F7  1  -0.04264983  1.40578817  1.09392405  1
  F  F8  1  0.00000000  0.00000000  0.00000000  1
  F  F9  1  0.50000000  0.50000000  0.50000000  1
  F  F10  1  0.00000000  0.50000000  -0.00000000  1
  F  F11  1  0.50000000  0.00000000  0.50000000  1
  Li  Li12  1  0.06941831  0.34398396  -0.00000000  1
  Li  Li13  1  0.93058169  0.65601604  0.00000000  1
  Li  Li14  1  0.43058169  0.84398396  0.50000000  1
  Li  Li15  1  0.56941831  0.15601604  0.50000000  1
  Li  Li16  1  0.39696099  0.53252632  0.85870883  1
  Li  Li17  1  0.60303901  0.46747368  0.85870883  1
  Li  Li18  1  0.10303901  0.03252632  0.64129117  1
  Li  Li19  1  0.89696099  0.96747368  0.64129117  1
  Li  Li20  1  0.60303901  0.46747368  0.14129117  1
  Li  Li21  1  0.39696099  0.53252632  0.14129117  1
  Li  Li22  1  0.89696099  0.96747368  0.35870883  1
  Li  Li23  1  0.10303901  0.03252632  0.35870883  1
