# generated using pymatgen
data_Li(Te2P)2
_symmetry_space_group_name_H-M   'P 1'
_cell_length_a   5.24378278
_cell_length_b   5.45617968
_cell_length_c   7.29736448
_cell_angle_alpha   94.34183201
_cell_angle_beta   99.45560747
_cell_angle_gamma   107.43941356
_symmetry_Int_Tables_number   1
_chemical_formula_structural   Li(Te2P)2
_chemical_formula_sum   'Li1 Te4 P2'
_cell_volume   194.74242255
_cell_formula_units_Z   1
loop_
 _symmetry_equiv_pos_site_id
 _symmetry_equiv_pos_as_xyz
  1  'x, y, z'
loop_
 _atom_site_type_symbol
 _atom_site_label
 _atom_site_symmetry_multiplicity
 _atom_site_fract_x
 _atom_site_fract_y
 _atom_site_fract_z
 _atom_site_occupancy
  Te  Te0  1  0.00000000  0.00000000  0.00000000  1
  Te  Te1  1  0.50000000  0.50000000  0.50000000  1
  Te  Te2  1  0.50000000  0.50000000  0.00000000  1
  Te  Te3  1  0.50000000  0.00000000  0.50000000  1
  P  P4  1  0.00000000  0.50000000  0.50000000  1
  P  P5  1  0.48708304  0.80234564  0.91506675  1
  Li  Li6  1  0.80393343  0.01336449  0.67524326  1
