# generated using pymatgen
data_LiYP2Se
_symmetry_space_group_name_H-M   'P 1'
_cell_length_a   4.81673850
_cell_length_b   5.13029872
_cell_length_c   7.11890279
_cell_angle_alpha   95.03938085
_cell_angle_beta   100.97472383
_cell_angle_gamma   110.24119003
_symmetry_Int_Tables_number   1
_chemical_formula_structural   LiYP2Se
_chemical_formula_sum   'Li2 Y2 P4 Se2'
_cell_volume   159.76289479
_cell_formula_units_Z   2
loop_
 _symmetry_equiv_pos_site_id
 _symmetry_equiv_pos_as_xyz
  1  'x, y, z'
loop_
 _atom_site_type_symbol
 _atom_site_label
 _atom_site_symmetry_multiplicity
 _atom_site_fract_x
 _atom_site_fract_y
 _atom_site_fract_z
 _atom_site_occupancy
  P  P0  1  0.00000000  0.00000000  0.00000000  1
  P  P1  1  0.50000000  0.50000000  0.50000000  1
  P  P2  1  0.25000000  0.25000000  0.25000000  1
  P  P3  1  0.75000000  0.25000000  0.00000000  1
  Se  Se4  1  0.25000000  0.75000000  0.50000000  1
  Se  Se5  1  0.15439864  0.42619694  0.96006879  1
  Li  Li6  1  0.20771403  0.40083877  0.89176881  1
  Li  Li7  1  0.10246546  0.58098945  0.53562248  1
  Y  Y8  1  0.90303130  0.40932817  0.85528253  1
  Y  Y9  1  0.46783858  0.72248405  0.10935493  1
