# generated using pymatgen
data_LiF
_symmetry_space_group_name_H-M   'P 1'
_cell_length_a   6.33918806
_cell_length_b   5.29521455
_cell_length_c   3.87837737
_cell_angle_alpha   90.00000000
_cell_angle_beta   90.00000000
_cell_angle_gamma   90.00000000
_symmetry_Int_Tables_number   1
_chemical_formula_structural   LiF
_chemical_formula_sum   'Li4 F4'
_cell_volume   130.18689285
_cell_formula_units_Z   4
loop_
 _symmetry_equiv_pos_site_id
 _symmetry_equiv_pos_as_xyz
  1  'x, y, z'
loop_
 _atom_site_type_symbol
 _atom_site_label
 _atom_site_symmetry_multiplicity
 _atom_site_fract_x
 _atom_site_fract_y
 _atom_site_fract_z
 _atom_site_occupancy
  F  F0  1  0.82226790  0.29696292  0.50000000  1
  F  F1  1  -0.82226790  -0.29696292  0.50000000  1
  F  F2  1  -0.32226790  0.79696292  0.50000000  1
  F  F3  1  1.32226790  0.20303708  0.50000000  1
  Li  Li4  1  0.83397203  0.06541005  -0.00000000  1
  Li  Li5  1  0.16602797  0.93458995  0.00000000  1
  Li  Li6  1  0.66602797  0.56541005  0.00000000  1
  Li  Li7  1  0.33397203  0.43458995  0.00000000  1
