# generated using pymatgen
data_LiF
_symmetry_space_group_name_H-M   'P 1'
_cell_length_a   15.34122231
_cell_length_b   15.34122231
_cell_length_c   3.78160270
_cell_angle_alpha   90.00000000
_cell_angle_beta   90.00000000
_cell_angle_gamma   120.00000000
_symmetry_Int_Tables_number   1
_chemical_formula_structural   LiF
_chemical_formula_sum   'Li27 F27'
_cell_volume   770.77293702
_cell_formula_units_Z   27
loop_
 _symmetry_equiv_pos_site_id
 _symmetry_equiv_pos_as_xyz
  1  'x, y, z'
loop_
 _atom_site_type_symbol
 _atom_site_label
 _atom_site_symmetry_multiplicity
 _atom_site_fract_x
 _atom_site_fract_y
 _atom_site_fract_z
 _atom_site_occupancy
  F  F0  1  0.82883697  0.26646531  0.42206958  1
  F  F1  1  0.73353469  0.56237165  0.42206958  1
  F  F2  1  0.43762835  0.17116303  0.42206958  1
  F  F3  1  0.73353469  0.17116303  0.57793042  1
  F  F4  1  0.43762835  0.26646531  0.57793042  1
  F  F5  1  0.82883697  0.56237165  0.57793042  1
  F  F6  1  0.40137558  0.59862442  0.50000000  1
  F  F7  1  0.40137558  0.80275115  0.50000000  1
  F  F8  1  0.19724885  0.59862442  0.50000000  1
  F  F9  1  0.66666667  0.33333333  0.00000000  1
  F  F10  1  0.00000000  0.00000000  0.88499153  1
  F  F11  1  0.00000000  0.00000000  0.11500847  1
  F  F12  1  0.31861485  0.60227592  0.84972285  1
  F  F13  1  0.39772408  0.71633893  0.84972285  1
  F  F14  1  0.28366107  0.68138515  0.84972285  1
  F  F15  1  0.39772408  0.68138515  0.15027715  1
  F  F16  1  0.28366107  0.60227592  0.15027715  1
  F  F17  1  0.31861485  0.71633893  0.15027715  1
  F  F18  1  0.05883815  0.41205222  0.12241928  1
  F  F19  1  0.58794778  0.64678593  0.12241928  1
  F  F20  1  0.35321407  0.94116185  0.12241928  1
  F  F21  1  0.58794778  0.94116185  0.87758072  1
  F  F22  1  0.35321407  0.41205222  0.87758072  1
  F  F23  1  0.05883815  0.64678593  0.87758072  1
  F  F24  1  0.09011416  0.90988584  0.00000000  1
  F  F25  1  0.09011416  0.18022833  -0.00000000  1
  F  F26  1  0.81977167  0.90988584  0.00000000  1
  Li  Li27  1  0.87547103  0.30528416  0.97472593  1
  Li  Li28  1  -0.30528416  0.57018687  0.97472593  1
  Li  Li29  1  -0.57018687  -0.87547103  0.97472593  1
  Li  Li30  1  -0.30528416  -0.87547103  -0.97472593  1
  Li  Li31  1  -0.57018687  0.30528416  -0.97472593  1
  Li  Li32  1  0.87547103  0.57018687  -0.97472593  1
  Li  Li33  1  0.33333333  0.66666667  0.50000000  1
  Li  Li34  1  0.66666667  0.33333333  0.50000000  1
  Li  Li35  1  0.86047703  0.22661572  0.18744973  1
  Li  Li36  1  0.77338428  0.63386131  0.18744973  1
  Li  Li37  1  0.36613869  0.13952297  0.18744973  1
  Li  Li38  1  0.77338428  0.13952297  0.81255027  1
  Li  Li39  1  0.36613869  0.22661572  0.81255027  1
  Li  Li40  1  0.86047703  0.63386131  0.81255027  1
  Li  Li41  1  0.47149809  0.52850191  0.00000000  1
  Li  Li42  1  0.47149809  0.94299618  0.00000000  1
  Li  Li43  1  0.05700382  0.52850191  0.00000000  1
  Li  Li44  1  0.00485783  0.09836459  0.13264347  1
  Li  Li45  1  0.90163541  0.90649324  0.13264347  1
  Li  Li46  1  0.09350676  0.99514217  0.13264347  1
  Li  Li47  1  0.90163541  0.99514217  0.86735653  1
  Li  Li48  1  0.09350676  0.09836459  0.86735653  1
  Li  Li49  1  0.00485783  0.90649324  0.86735653  1
  Li  Li50  1  0.12186193  0.87813807  0.50000000  1
  Li  Li51  1  0.12186193  0.24372385  0.50000000  1
  Li  Li52  1  0.75627615  0.87813807  0.50000000  1
  Li  Li53  1  0.33333333  0.66666667  0.00000000  1
