# generated using pymatgen
data_Li2Y2As4P2Se
_symmetry_space_group_name_H-M   'P 1'
_cell_length_a   5.72329020
_cell_length_b   5.86494630
_cell_length_c   7.02198328
_cell_angle_alpha   92.88265160
_cell_angle_beta   96.62987264
_cell_angle_gamma   102.00355418
_symmetry_Int_Tables_number   1
_chemical_formula_structural   Li2Y2As4P2Se
_chemical_formula_sum   'Li2 Y2 As4 P2 Se1'
_cell_volume   228.33925495
_cell_formula_units_Z   1
loop_
 _symmetry_equiv_pos_site_id
 _symmetry_equiv_pos_as_xyz
  1  'x, y, z'
loop_
 _atom_site_type_symbol
 _atom_site_label
 _atom_site_symmetry_multiplicity
 _atom_site_fract_x
 _atom_site_fract_y
 _atom_site_fract_z
 _atom_site_occupancy
  Se  Se0  1  0.12500000  0.00000000  0.25000000  1
  P  P1  1  0.00000000  0.00000000  0.00000000  1
  P  P2  1  0.37500000  0.00000000  0.25000000  1
  As  As3  1  0.25000000  0.25000000  0.25000000  1
  As  As4  1  0.00000000  0.25000000  0.12500000  1
  As  As5  1  0.98123920  0.71453130  0.72239992  1
  As  As6  1  0.18944130  0.47713456  0.15831015  1
  Li  Li7  1  0.46525079  0.39143240  0.67208786  1
  Li  Li8  1  0.22244397  0.70882604  0.65177877  1
  Y  Y9  1  0.56468754  0.24507606  0.92674269  1
  Y  Y10  1  0.60074555  0.01387458  0.84230986  1
