# generated using pymatgen
data_LiF
_symmetry_space_group_name_H-M   'P 1'
_cell_length_a   5.77979789
_cell_length_b   5.77979789
_cell_length_c   6.59482956
_cell_angle_alpha   90.00000000
_cell_angle_beta   90.00000000
_cell_angle_gamma   120.00000000
_symmetry_Int_Tables_number   1
_chemical_formula_structural   LiF
_chemical_formula_sum   'Li9 F9'
_cell_volume   190.79171492
_cell_formula_units_Z   9
loop_
 _symmetry_equiv_pos_site_id
 _symmetry_equiv_pos_as_xyz
  1  'x, y, z'
loop_
 _atom_site_type_symbol
 _atom_site_label
 _atom_site_symmetry_multiplicity
 _atom_site_fract_x
 _atom_site_fract_y
 _atom_site_fract_z
 _atom_site_occupancy
  F  F0  1  0.00000000  0.00000000  0.17109671  1
  F  F1  1  0.00000000  0.00000000  0.82890329  1
  F  F2  1  0.51234471  0.26607174  0.93977347  1
  F  F3  1  0.73392826  0.24627298  0.93977347  1
  F  F4  1  0.75372702  0.48765529  0.93977347  1
  F  F5  1  0.73392826  0.48765529  0.06022653  1
  F  F6  1  0.75372702  0.26607174  0.06022653  1
  F  F7  1  0.51234471  0.24627298  0.06022653  1
  F  F8  1  0.33333333  0.66666667  0.50000000  1
  Li  Li9  1  0.35491313  0.34770165  0.42583318  1
  Li  Li10  1  -0.34770165  0.00721148  0.42583318  1
  Li  Li11  1  -0.00721148  -0.35491313  0.42583318  1
  Li  Li12  1  -0.34770165  -0.35491313  -0.42583318  1
  Li  Li13  1  -0.00721148  0.34770165  -0.42583318  1
  Li  Li14  1  0.35491313  0.00721148  -0.42583318  1
  Li  Li15  1  0.58720760  0.41279240  0.50000000  1
  Li  Li16  1  0.58720760  0.17441520  0.50000000  1
  Li  Li17  1  0.82558480  0.41279240  0.50000000  1
