# generated using pymatgen
data_Li4TeF2
_symmetry_space_group_name_H-M   'P 1'
_cell_length_a   14.42997299
_cell_length_b   14.42997299
_cell_length_c   14.42997299
_cell_angle_alpha   90.00000000
_cell_angle_beta   90.00000000
_cell_angle_gamma   90.00000000
_symmetry_Int_Tables_number   1
_chemical_formula_structural   Li4TeF2
_chemical_formula_sum   'Li96 Te24 F48'
_cell_volume   3004.66843548
_cell_formula_units_Z   24
loop_
 _symmetry_equiv_pos_site_id
 _symmetry_equiv_pos_as_xyz
  1  'x, y, z'
loop_
 _atom_site_type_symbol
 _atom_site_label
 _atom_site_symmetry_multiplicity
 _atom_site_fract_x
 _atom_site_fract_y
 _atom_site_fract_z
 _atom_site_occupancy
  F  F0  1  0.12500000  0.60073608  0.85073608  1
  F  F1  1  0.37500000  0.39926392  0.35073608  1
  F  F2  1  0.87500000  0.10073608  0.64926392  1
  F  F3  1  0.62500000  0.89926392  0.14926392  1
  F  F4  1  0.85073608  0.12500000  0.60073608  1
  F  F5  1  0.35073608  0.37500000  0.39926392  1
  F  F6  1  0.64926392  0.87500000  0.10073608  1
  F  F7  1  0.14926392  0.62500000  0.89926392  1
  F  F8  1  0.60073608  0.85073608  0.12500000  1
  F  F9  1  0.39926392  0.35073608  0.37500000  1
  F  F10  1  0.10073608  0.64926392  0.87500000  1
  F  F11  1  0.89926392  0.14926392  0.62500000  1
  F  F12  1  0.62500000  0.10073608  0.35073608  1
  F  F13  1  0.87500000  0.89926392  0.85073608  1
  F  F14  1  0.37500000  0.60073608  0.14926392  1
  F  F15  1  0.12500000  0.39926392  0.64926392  1
  F  F16  1  0.35073608  0.62500000  0.10073608  1
  F  F17  1  0.85073608  0.87500000  0.89926392  1
  F  F18  1  0.14926392  0.37500000  0.60073608  1
  F  F19  1  0.64926392  0.12500000  0.39926392  1
  F  F20  1  0.10073608  0.35073608  0.62500000  1
  F  F21  1  0.89926392  0.85073608  0.87500000  1
  F  F22  1  0.60073608  0.14926392  0.37500000  1
  F  F23  1  0.39926392  0.64926392  0.12500000  1
  F  F24  1  0.12500000  0.79503470  0.45496530  1
  F  F25  1  0.37500000  0.20496530  0.95496530  1
  F  F26  1  0.87500000  0.29503470  0.04503470  1
  F  F27  1  0.62500000  0.70496530  0.54503470  1
  F  F28  1  0.45496530  0.12500000  0.79503470  1
  F  F29  1  0.95496530  0.37500000  0.20496530  1
  F  F30  1  0.04503470  0.87500000  0.29503470  1
  F  F31  1  0.54503470  0.62500000  0.70496530  1
  F  F32  1  0.79503470  0.45496530  0.12500000  1
  F  F33  1  0.20496530  0.95496530  0.37500000  1
  F  F34  1  0.29503470  0.04503470  0.87500000  1
  F  F35  1  0.70496530  0.54503470  0.62500000  1
  F  F36  1  0.62500000  0.29503470  0.95496530  1
  F  F37  1  0.87500000  0.70496530  0.45496530  1
  F  F38  1  0.37500000  0.79503470  0.54503470  1
  F  F39  1  0.12500000  0.20496530  0.04503470  1
  F  F40  1  0.95496530  0.62500000  0.29503470  1
  F  F41  1  0.45496530  0.87500000  0.70496530  1
  F  F42  1  0.54503470  0.37500000  0.79503470  1
  F  F43  1  0.04503470  0.12500000  0.20496530  1
  F  F44  1  0.29503470  0.95496530  0.62500000  1
  F  F45  1  0.70496530  0.45496530  0.87500000  1
  F  F46  1  0.79503470  0.54503470  0.37500000  1
  F  F47  1  0.20496530  0.04503470  0.12500000  1
  Li  Li48  1  0.12500000  0.25194246  0.99805754  1
  Li  Li49  1  0.37500000  0.74805754  0.49805754  1
  Li  Li50  1  0.87500000  0.75194246  0.50194246  1
  Li  Li51  1  0.62500000  0.24805754  0.00194246  1
  Li  Li52  1  0.99805754  0.12500000  0.25194246  1
  Li  Li53  1  0.49805754  0.37500000  0.74805754  1
  Li  Li54  1  0.50194246  0.87500000  0.75194246  1
  Li  Li55  1  0.00194246  0.62500000  0.24805754  1
  Li  Li56  1  0.25194246  0.99805754  0.12500000  1
  Li  Li57  1  0.74805754  0.49805754  0.37500000  1
  Li  Li58  1  0.75194246  0.50194246  0.87500000  1
  Li  Li59  1  0.24805754  0.00194246  0.62500000  1
  Li  Li60  1  0.62500000  0.75194246  0.49805754  1
  Li  Li61  1  0.87500000  0.24805754  0.99805754  1
  Li  Li62  1  0.37500000  0.25194246  0.00194246  1
  Li  Li63  1  0.12500000  0.74805754  0.50194246  1
  Li  Li64  1  0.49805754  0.62500000  0.75194246  1
  Li  Li65  1  0.99805754  0.87500000  0.24805754  1
  Li  Li66  1  0.00194246  0.37500000  0.25194246  1
  Li  Li67  1  0.50194246  0.12500000  0.74805754  1
  Li  Li68  1  0.75194246  0.49805754  0.62500000  1
  Li  Li69  1  0.24805754  0.99805754  0.87500000  1
  Li  Li70  1  0.25194246  0.00194246  0.37500000  1
  Li  Li71  1  0.74805754  0.50194246  0.12500000  1
  Li  Li72  1  0.62500000  -0.00000000  0.25000000  1
  Li  Li73  1  0.87500000  0.00000000  0.75000000  1
  Li  Li74  1  0.25000000  0.62500000  -0.00000000  1
  Li  Li75  1  0.75000000  0.87500000  0.00000000  1
  Li  Li76  1  0.00000000  0.25000000  0.62500000  1
  Li  Li77  1  0.00000000  0.75000000  0.87500000  1
  Li  Li78  1  0.12500000  0.50000000  0.75000000  1
  Li  Li79  1  0.37500000  0.50000000  0.25000000  1
  Li  Li80  1  0.75000000  0.12500000  0.50000000  1
  Li  Li81  1  0.25000000  0.37500000  0.50000000  1
  Li  Li82  1  0.50000000  0.75000000  0.12500000  1
  Li  Li83  1  0.50000000  0.25000000  0.37500000  1
  Li  Li84  1  0.96772382  0.39303185  0.99897349  1
  Li  Li85  1  -0.46772382  -0.39303185  1.49897349  1
  Li  Li86  1  -0.96772382  0.89303185  -0.49897349  1
  Li  Li87  1  1.46772382  0.10696815  -0.99897349  1
  Li  Li88  1  0.99897349  0.96772382  0.39303185  1
  Li  Li89  1  1.49897349  -0.46772382  -0.39303185  1
  Li  Li90  1  -0.49897349  -0.96772382  0.89303185  1
  Li  Li91  1  -0.99897349  1.46772382  0.10696815  1
  Li  Li92  1  0.39303185  0.99897349  0.96772382  1
  Li  Li93  1  -0.39303185  1.49897349  -0.46772382  1
  Li  Li94  1  0.89303185  -0.49897349  -0.96772382  1
  Li  Li95  1  0.10696815  -0.99897349  1.46772382  1
  Li  Li96  1  1.14303185  1.21772382  -0.74897349  1
  Li  Li97  1  0.35696815  -0.21772382  -0.24897349  1
  Li  Li98  1  0.64303185  -0.71772382  1.74897349  1
  Li  Li99  1  -0.14303185  1.71772382  1.24897349  1
  Li  Li100  1  1.71772382  1.24897349  -0.14303185  1
  Li  Li101  1  -0.71772382  1.74897349  0.64303185  1
  Li  Li102  1  -0.21772382  -0.24897349  0.35696815  1
  Li  Li103  1  1.21772382  -0.74897349  1.14303185  1
  Li  Li104  1  1.74897349  0.64303185  -0.71772382  1
  Li  Li105  1  1.24897349  -0.14303185  1.71772382  1
  Li  Li106  1  -0.74897349  1.14303185  1.21772382  1
  Li  Li107  1  -0.24897349  0.35696815  -0.21772382  1
  Li  Li108  1  1.46772382  0.89303185  1.49897349  1
  Li  Li109  1  0.03227618  0.10696815  1.99897349  1
  Li  Li110  1  -0.46772382  1.39303185  0.00102651  1
  Li  Li111  1  1.96772382  0.60696815  -0.49897349  1
  Li  Li112  1  1.49897349  1.46772382  0.89303185  1
  Li  Li113  1  1.99897349  0.03227618  0.10696815  1
  Li  Li114  1  0.00102651  -0.46772382  1.39303185  1
  Li  Li115  1  -0.49897349  1.96772382  0.60696815  1
  Li  Li116  1  0.89303185  1.49897349  1.46772382  1
  Li  Li117  1  0.10696815  1.99897349  0.03227618  1
  Li  Li118  1  1.39303185  0.00102651  -0.46772382  1
  Li  Li119  1  0.60696815  -0.49897349  1.96772382  1
  Li  Li120  1  1.64303185  1.71772382  -0.24897349  1
  Li  Li121  1  0.85696815  0.28227618  0.25102651  1
  Li  Li122  1  1.14303185  -0.21772382  2.24897349  1
  Li  Li123  1  0.35696815  2.21772382  1.74897349  1
  Li  Li124  1  2.21772382  1.74897349  0.35696815  1
  Li  Li125  1  -0.21772382  2.24897349  1.14303185  1
  Li  Li126  1  0.28227618  0.25102651  0.85696815  1
  Li  Li127  1  1.71772382  -0.24897349  1.64303185  1
  Li  Li128  1  2.24897349  1.14303185  -0.21772382  1
  Li  Li129  1  1.74897349  0.35696815  2.21772382  1
  Li  Li130  1  -0.24897349  1.64303185  1.71772382  1
  Li  Li131  1  0.25102651  0.85696815  0.28227618  1
  Li  Li132  1  0.12500000  0.00000000  0.25000000  1
  Li  Li133  1  0.37500000  0.00000000  0.75000000  1
  Li  Li134  1  0.25000000  0.12500000  0.00000000  1
  Li  Li135  1  0.75000000  0.37500000  0.00000000  1
  Li  Li136  1  0.00000000  0.25000000  0.12500000  1
  Li  Li137  1  0.00000000  0.75000000  0.37500000  1
  Li  Li138  1  0.62500000  0.50000000  0.75000000  1
  Li  Li139  1  0.87500000  0.50000000  0.25000000  1
  Li  Li140  1  0.75000000  0.62500000  0.50000000  1
  Li  Li141  1  0.25000000  0.87500000  0.50000000  1
  Li  Li142  1  0.50000000  0.75000000  0.62500000  1
  Li  Li143  1  0.50000000  0.25000000  0.87500000  1
  Te  Te144  1  0.12500000  0.57321234  0.67678766  1
  Te  Te145  1  0.37500000  0.42678766  0.17678766  1
  Te  Te146  1  0.87500000  0.07321234  0.82321234  1
  Te  Te147  1  0.62500000  0.92678766  0.32321234  1
  Te  Te148  1  0.67678766  0.12500000  0.57321234  1
  Te  Te149  1  0.17678766  0.37500000  0.42678766  1
  Te  Te150  1  0.82321234  0.87500000  0.07321234  1
  Te  Te151  1  0.32321234  0.62500000  0.92678766  1
  Te  Te152  1  0.57321234  0.67678766  0.12500000  1
  Te  Te153  1  0.42678766  0.17678766  0.37500000  1
  Te  Te154  1  0.07321234  0.82321234  0.87500000  1
  Te  Te155  1  0.92678766  0.32321234  0.62500000  1
  Te  Te156  1  0.62500000  0.07321234  0.17678766  1
  Te  Te157  1  0.87500000  0.92678766  0.67678766  1
  Te  Te158  1  0.37500000  0.57321234  0.32321234  1
  Te  Te159  1  0.12500000  0.42678766  0.82321234  1
  Te  Te160  1  0.17678766  0.62500000  0.07321234  1
  Te  Te161  1  0.67678766  0.87500000  0.92678766  1
  Te  Te162  1  0.32321234  0.37500000  0.57321234  1
  Te  Te163  1  0.82321234  0.12500000  0.42678766  1
  Te  Te164  1  0.07321234  0.17678766  0.62500000  1
  Te  Te165  1  0.92678766  0.67678766  0.87500000  1
  Te  Te166  1  0.57321234  0.32321234  0.37500000  1
  Te  Te167  1  0.42678766  0.82321234  0.12500000  1
