# generated using pymatgen
data_Li(SbP)2
_symmetry_space_group_name_H-M   'P 1'
_cell_length_a   4.98410078
_cell_length_b   4.97190647
_cell_length_c   7.19470197
_cell_angle_alpha   94.86568767
_cell_angle_beta   100.59645620
_cell_angle_gamma   109.54353355
_symmetry_Int_Tables_number   1
_chemical_formula_structural   Li(SbP)2
_chemical_formula_sum   'Li1 Sb2 P2'
_cell_volume   163.07752994
_cell_formula_units_Z   1
loop_
 _symmetry_equiv_pos_site_id
 _symmetry_equiv_pos_as_xyz
  1  'x, y, z'
loop_
 _atom_site_type_symbol
 _atom_site_label
 _atom_site_symmetry_multiplicity
 _atom_site_fract_x
 _atom_site_fract_y
 _atom_site_fract_z
 _atom_site_occupancy
  P  P0  1  0.00000000  0.00000000  0.00000000  1
  P  P1  1  0.50000000  0.50000000  0.50000000  1
  Li  Li2  1  0.50000000  0.50000000  0.00000000  1
  Sb  Sb3  1  0.50000000  0.00000000  0.50000000  1
  Sb  Sb4  1  0.00000000  0.50000000  0.50000000  1
