# generated using pymatgen
data_LiF
_symmetry_space_group_name_H-M   'P 1'
_cell_length_a   10.05879734
_cell_length_b   5.82695701
_cell_length_c   10.95001046
_cell_angle_alpha   90.00000000
_cell_angle_beta   90.00000000
_cell_angle_gamma   90.00000000
_symmetry_Int_Tables_number   1
_chemical_formula_structural   LiF
_chemical_formula_sum   'Li24 F24'
_cell_volume   641.80398127
_cell_formula_units_Z   24
loop_
 _symmetry_equiv_pos_site_id
 _symmetry_equiv_pos_as_xyz
  1  'x, y, z'
loop_
 _atom_site_type_symbol
 _atom_site_label
 _atom_site_symmetry_multiplicity
 _atom_site_fract_x
 _atom_site_fract_y
 _atom_site_fract_z
 _atom_site_occupancy
  F  F0  1  0.32175522  0.88731453  0.20090045  1
  F  F1  1  0.17824478  0.11268547  0.70090045  1
  F  F2  1  0.67824478  0.38731453  0.79909955  1
  F  F3  1  0.82175522  0.61268547  0.29909955  1
  F  F4  1  0.67824478  0.11268547  0.79909955  1
  F  F5  1  0.82175522  0.88731453  0.29909955  1
  F  F6  1  0.32175522  0.61268547  0.20090045  1
  F  F7  1  0.17824478  0.38731453  0.70090045  1
  F  F8  1  0.14819285  0.25000000  0.50886580  1
  F  F9  1  0.35180715  0.75000000  0.00886580  1
  F  F10  1  0.85180715  0.75000000  0.49113420  1
  F  F11  1  0.64819285  0.25000000  0.99113420  1
  F  F12  1  0.23447103  0.50721325  0.54349285  1
  F  F13  1  0.26552897  0.49278675  0.04349285  1
  F  F14  1  0.76552897  0.00721325  0.45650715  1
  F  F15  1  0.73447103  0.99278675  0.95650715  1
  F  F16  1  0.76552897  0.49278675  0.45650715  1
  F  F17  1  0.73447103  0.50721325  0.95650715  1
  F  F18  1  0.23447103  0.99278675  0.54349285  1
  F  F19  1  0.26552897  0.00721325  0.04349285  1
  F  F20  1  0.01430584  0.25000000  0.42377782  1
  F  F21  1  0.48569416  0.75000000  0.92377782  1
  F  F22  1  0.98569416  0.75000000  0.57622218  1
  F  F23  1  0.51430584  0.25000000  0.07622218  1
  Li  Li24  1  0.00000000  0.00000000  0.00000000  1
  Li  Li25  1  0.50000000  0.00000000  0.50000000  1
  Li  Li26  1  0.00000000  0.50000000  0.00000000  1
  Li  Li27  1  0.50000000  0.50000000  0.50000000  1
  Li  Li28  1  0.69065072  0.07798563  0.63493838  1
  Li  Li29  1  -0.19065072  -0.07798563  1.13493838  1
  Li  Li30  1  -0.69065072  0.57798563  -0.63493838  1
  Li  Li31  1  1.19065072  0.42201437  -0.13493838  1
  Li  Li32  1  -0.69065072  -0.07798563  -0.63493838  1
  Li  Li33  1  1.19065072  0.07798563  -0.13493838  1
  Li  Li34  1  0.69065072  0.42201437  0.63493838  1
  Li  Li35  1  -0.19065072  0.57798563  1.13493838  1
  Li  Li36  1  0.30130593  0.25000000  0.80686120  1
  Li  Li37  1  0.19869407  0.75000000  0.30686120  1
  Li  Li38  1  0.69869407  0.75000000  0.19313880  1
  Li  Li39  1  0.80130593  0.25000000  0.69313880  1
  Li  Li40  1  0.90932717  0.02166989  0.65546670  1
  Li  Li41  1  0.59067283  0.97833011  0.15546670  1
  Li  Li42  1  0.09067283  0.52166989  0.34453330  1
  Li  Li43  1  0.40932717  0.47833011  0.84453330  1
  Li  Li44  1  0.09067283  0.97833011  0.34453330  1
  Li  Li45  1  0.40932717  0.02166989  0.84453330  1
  Li  Li46  1  0.90932717  0.47833011  0.65546670  1
  Li  Li47  1  0.59067283  0.52166989  0.15546670  1
