# generated using pymatgen
data_Li2Y2Cu3P2Se
_symmetry_space_group_name_H-M   'P 1'
_cell_length_a   5.16247026
_cell_length_b   5.45832858
_cell_length_c   6.50854502
_cell_angle_alpha   93.35335640
_cell_angle_beta   95.54134413
_cell_angle_gamma   100.59376262
_symmetry_Int_Tables_number   1
_chemical_formula_structural   Li2Y2Cu3P2Se
_chemical_formula_sum   'Li2 Y2 Cu3 P2 Se1'
_cell_volume   178.88658378
_cell_formula_units_Z   1
loop_
 _symmetry_equiv_pos_site_id
 _symmetry_equiv_pos_as_xyz
  1  'x, y, z'
loop_
 _atom_site_type_symbol
 _atom_site_label
 _atom_site_symmetry_multiplicity
 _atom_site_fract_x
 _atom_site_fract_y
 _atom_site_fract_z
 _atom_site_occupancy
  Se  Se0  1  0.00000000  0.00000000  0.00000000  1
  Cu  Cu1  1  0.50000000  0.50000000  0.50000000  1
  Cu  Cu2  1  0.25000000  0.25000000  0.25000000  1
  Cu  Cu3  1  0.75000000  0.25000000  0.00000000  1
  Y  Y4  1  0.25000000  0.75000000  0.50000000  1
  Y  Y5  1  0.52268996  0.20029777  0.40091054  1
  P  P6  1  0.95960257  0.81148338  0.66013501  1
  P  P7  1  0.76642385  0.84758764  0.44379673  1
  Li  Li8  1  0.43128651  0.43102118  0.10833533  1
  Li  Li9  1  0.53552947  0.64398618  0.16305780  1
