# generated using pymatgen
data_LiF
_symmetry_space_group_name_H-M   'P 1'
_cell_length_a   17.78320898
_cell_length_b   17.78320898
_cell_length_c   5.90233419
_cell_angle_alpha   90.00000000
_cell_angle_beta   90.00000000
_cell_angle_gamma   120.00000000
_symmetry_Int_Tables_number   1
_chemical_formula_structural   LiF
_chemical_formula_sum   'Li55 F55'
_cell_volume   1616.49621304
_cell_formula_units_Z   55
loop_
 _symmetry_equiv_pos_site_id
 _symmetry_equiv_pos_as_xyz
  1  'x, y, z'
loop_
 _atom_site_type_symbol
 _atom_site_label
 _atom_site_symmetry_multiplicity
 _atom_site_fract_x
 _atom_site_fract_y
 _atom_site_fract_z
 _atom_site_occupancy
  F  F0  1  0.33333333  0.66666667  0.50000000  1
  F  F1  1  0.46563657  0.80190176  0.37273372  1
  F  F2  1  0.19809824  0.66373481  0.37273372  1
  F  F3  1  0.33626519  0.53436343  0.37273372  1
  F  F4  1  0.19809824  0.53436343  0.62726628  1
  F  F5  1  0.33626519  0.80190176  0.62726628  1
  F  F6  1  0.46563657  0.66373481  0.62726628  1
  F  F7  1  0.60290787  0.80118980  0.43645836  1
  F  F8  1  0.19881020  0.80171807  0.43645836  1
  F  F9  1  0.19828193  0.39709213  0.43645836  1
  F  F10  1  0.19881020  0.39709213  0.56354164  1
  F  F11  1  0.19828193  0.80118980  0.56354164  1
  F  F12  1  0.60290787  0.80171807  0.56354164  1
  F  F13  1  0.18979335  0.51546658  0.71712290  1
  F  F14  1  0.48453342  0.67432677  0.71712290  1
  F  F15  1  0.32567323  0.81020665  0.71712290  1
  F  F16  1  0.48453342  0.81020665  0.28287710  1
  F  F17  1  0.32567323  0.51546658  0.28287710  1
  F  F18  1  0.18979335  0.67432677  0.28287710  1
  F  F19  1  0.64095615  0.69005260  0.73898733  1
  F  F20  1  0.30994740  0.95090355  0.73898733  1
  F  F21  1  0.04909645  0.35904385  0.73898733  1
  F  F22  1  0.30994740  0.35904385  0.26101267  1
  F  F23  1  0.04909645  0.69005260  0.26101267  1
  F  F24  1  0.64095615  0.95090355  0.26101267  1
  F  F25  1  0.00000000  0.00000000  0.00000000  1
  F  F26  1  0.73279051  0.00164096  0.14556049  1
  F  F27  1  0.99835904  0.73114955  0.14556049  1
  F  F28  1  0.26885045  0.26720949  0.14556049  1
  F  F29  1  0.99835904  0.26720949  0.85443951  1
  F  F30  1  0.26885045  0.00164096  0.85443951  1
  F  F31  1  0.73279051  0.73114955  0.85443951  1
  F  F32  1  0.39631423  0.60368577  0.50000000  1
  F  F33  1  0.39631423  0.79262847  0.50000000  1
  F  F34  1  0.20737153  0.60368577  0.50000000  1
  F  F35  1  0.00000000  0.00000000  0.10527457  1
  F  F36  1  0.00000000  0.00000000  0.89472543  1
  F  F37  1  0.64704120  0.66217581  0.99055750  1
  F  F38  1  0.33782419  0.98486539  0.99055750  1
  F  F39  1  0.01513461  0.35295880  0.99055750  1
  F  F40  1  0.33782419  0.35295880  0.00944250  1
  F  F41  1  0.01513461  0.66217581  0.00944250  1
  F  F42  1  0.64704120  0.98486539  0.00944250  1
  F  F43  1  0.44119472  0.45816349  0.63705066  1
  F  F44  1  0.54183651  0.98303123  0.63705066  1
  F  F45  1  0.01696877  0.55880528  0.63705066  1
  F  F46  1  0.54183651  0.55880528  0.36294934  1
  F  F47  1  0.01696877  0.45816349  0.36294934  1
  F  F48  1  0.44119472  0.98303123  0.36294934  1
  F  F49  1  0.45457578  0.84638498  0.37336214  1
  F  F50  1  0.15361502  0.60819080  0.37336214  1
  F  F51  1  0.39180920  0.54542422  0.37336214  1
  F  F52  1  0.15361502  0.54542422  0.62663786  1
  F  F53  1  0.39180920  0.84638498  0.62663786  1
  F  F54  1  0.45457578  0.60819080  0.62663786  1
  Li  Li55  1  0.71449024  0.32320117  0.79857056  1
  Li  Li56  1  -0.32320117  0.39128907  0.79857056  1
  Li  Li57  1  -0.39128907  -0.71449024  0.79857056  1
  Li  Li58  1  -0.32320117  -0.71449024  -0.79857056  1
  Li  Li59  1  -0.39128907  0.32320117  -0.79857056  1
  Li  Li60  1  0.71449024  0.39128907  -0.79857056  1
  Li  Li61  1  0.46775031  0.10190143  0.64588140  1
  Li  Li62  1  0.89809857  0.36584888  0.64588140  1
  Li  Li63  1  0.63415112  0.53224969  0.64588140  1
  Li  Li64  1  0.89809857  0.53224969  0.35411860  1
  Li  Li65  1  0.63415112  0.10190143  0.35411860  1
  Li  Li66  1  0.46775031  0.36584888  0.35411860  1
  Li  Li67  1  0.03746470  0.96253530  0.00000000  1
  Li  Li68  1  0.03746470  0.07492940  0.00000000  1
  Li  Li69  1  0.92507060  0.96253530  0.00000000  1
  Li  Li70  1  0.78887049  0.64772387  0.96031523  1
  Li  Li71  1  0.35227613  0.14114662  0.96031523  1
  Li  Li72  1  0.85885338  0.21112951  0.96031523  1
  Li  Li73  1  0.35227613  0.21112951  0.03968477  1
  Li  Li74  1  0.85885338  0.64772387  0.03968477  1
  Li  Li75  1  0.78887049  0.14114662  0.03968477  1
  Li  Li76  1  0.66666667  0.33333333  0.50000000  1
  Li  Li77  1  0.76608754  0.21677153  0.65815197  1
  Li  Li78  1  0.78322847  0.54931601  0.65815197  1
  Li  Li79  1  0.45068399  0.23391246  0.65815197  1
  Li  Li80  1  0.78322847  0.23391246  0.34184803  1
  Li  Li81  1  0.45068399  0.21677153  0.34184803  1
  Li  Li82  1  0.76608754  0.54931601  0.34184803  1
  Li  Li83  1  0.10822681  0.61640708  0.56837734  1
  Li  Li84  1  0.38359292  0.49181973  0.56837734  1
  Li  Li85  1  0.50818027  0.89177319  0.56837734  1
  Li  Li86  1  0.38359292  0.89177319  0.43162266  1
  Li  Li87  1  0.50818027  0.61640708  0.43162266  1
  Li  Li88  1  0.10822681  0.49181973  0.43162266  1
  Li  Li89  1  0.84015232  0.45912117  0.05569619  1
  Li  Li90  1  0.54087883  0.38103115  0.05569619  1
  Li  Li91  1  0.61896885  0.15984768  0.05569619  1
  Li  Li92  1  0.54087883  0.15984768  0.94430381  1
  Li  Li93  1  0.61896885  0.45912117  0.94430381  1
  Li  Li94  1  0.84015232  0.38103115  0.94430381  1
  Li  Li95  1  0.49327498  0.04409847  0.88231506  1
  Li  Li96  1  0.95590153  0.44917651  0.88231506  1
  Li  Li97  1  0.55082349  0.50672502  0.88231506  1
  Li  Li98  1  0.95590153  0.50672502  0.11768494  1
  Li  Li99  1  0.55082349  0.04409847  0.11768494  1
  Li  Li100  1  0.49327498  0.44917651  0.11768494  1
  Li  Li101  1  0.10793011  0.89206989  0.50000000  1
  Li  Li102  1  0.10793011  0.21586022  0.50000000  1
  Li  Li103  1  0.78413978  0.89206989  0.50000000  1
  Li  Li104  1  0.23080995  0.55242435  0.96891269  1
  Li  Li105  1  0.44757565  0.67838560  0.96891269  1
  Li  Li106  1  0.32161440  0.76919005  0.96891269  1
  Li  Li107  1  0.44757565  0.76919005  0.03108731  1
  Li  Li108  1  0.32161440  0.55242435  0.03108731  1
  Li  Li109  1  0.23080995  0.67838560  0.03108731  1
