# generated using pymatgen
data_LiF
_symmetry_space_group_name_H-M   'P 1'
_cell_length_a   5.06565878
_cell_length_b   5.06565878
_cell_length_c   23.26567068
_cell_angle_alpha   90.00000000
_cell_angle_beta   90.00000000
_cell_angle_gamma   120.00000000
_symmetry_Int_Tables_number   1
_chemical_formula_structural   LiF
_chemical_formula_sum   'Li21 F21'
_cell_volume   517.03277368
_cell_formula_units_Z   21
loop_
 _symmetry_equiv_pos_site_id
 _symmetry_equiv_pos_as_xyz
  1  'x, y, z'
loop_
 _atom_site_type_symbol
 _atom_site_label
 _atom_site_symmetry_multiplicity
 _atom_site_fract_x
 _atom_site_fract_y
 _atom_site_fract_z
 _atom_site_occupancy
  F  F0  1  0.94372942  0.63247124  0.27955053  1
  F  F1  1  0.36752876  0.31125818  0.27955053  1
  F  F2  1  0.68874182  0.05627058  0.27955053  1
  F  F3  1  0.36752876  0.05627058  0.72044947  1
  F  F4  1  0.68874182  0.63247124  0.72044947  1
  F  F5  1  0.94372942  0.31125818  0.72044947  1
  F  F6  1  0.89240092  0.28752247  0.29641830  1
  F  F7  1  0.71247753  0.60487845  0.29641830  1
  F  F8  1  0.39512155  0.10759908  0.29641830  1
  F  F9  1  0.71247753  0.10759908  0.70358170  1
  F  F10  1  0.39512155  0.28752247  0.70358170  1
  F  F11  1  0.89240092  0.60487845  0.70358170  1
  F  F12  1  0.33333333  0.66666667  0.00000000  1
  F  F13  1  0.66666667  0.33333333  0.82499943  1
  F  F14  1  0.66666667  0.33333333  0.17500057  1
  F  F15  1  0.57334600  0.94894657  0.54000418  1
  F  F16  1  0.05105343  0.62439943  0.54000418  1
  F  F17  1  0.37560057  0.42665400  0.54000418  1
  F  F18  1  0.05105343  0.42665400  0.45999582  1
  F  F19  1  0.37560057  0.94894657  0.45999582  1
  F  F20  1  0.57334600  0.62439943  0.45999582  1
  Li  Li21  1  0.70954769  0.81806133  0.54481493  1
  Li  Li22  1  -0.81806133  -0.10851363  0.54481493  1
  Li  Li23  1  0.10851363  -0.70954769  0.54481493  1
  Li  Li24  1  -0.81806133  -0.70954769  -0.54481493  1
  Li  Li25  1  0.10851363  0.81806133  -0.54481493  1
  Li  Li26  1  0.70954769  -0.10851363  -0.54481493  1
  Li  Li27  1  0.12340810  0.30835030  0.86651197  1
  Li  Li28  1  0.69164970  0.81505779  0.86651197  1
  Li  Li29  1  0.18494221  0.87659190  0.86651197  1
  Li  Li30  1  0.69164970  0.87659190  0.13348803  1
  Li  Li31  1  0.18494221  0.30835030  0.13348803  1
  Li  Li32  1  0.12340810  0.81505779  0.13348803  1
  Li  Li33  1  0.19765234  0.44160869  0.69801667  1
  Li  Li34  1  0.55839131  0.75604365  0.69801667  1
  Li  Li35  1  0.24395635  0.80234766  0.69801667  1
  Li  Li36  1  0.55839131  0.80234766  0.30198333  1
  Li  Li37  1  0.24395635  0.44160869  0.30198333  1
  Li  Li38  1  0.19765234  0.75604365  0.30198333  1
  Li  Li39  1  0.00000000  0.00000000  0.50000000  1
  Li  Li40  1  0.00000000  0.00000000  0.24578086  1
  Li  Li41  1  0.00000000  0.00000000  0.75421914  1
