# generated using pymatgen
data_LiY2MoP3Se
_symmetry_space_group_name_H-M   'P 1'
_cell_length_a   4.73222002
_cell_length_b   4.92894575
_cell_length_c   6.92316761
_cell_angle_alpha   95.11871940
_cell_angle_beta   100.44020583
_cell_angle_gamma   109.45062649
_symmetry_Int_Tables_number   1
_chemical_formula_structural   LiY2MoP3Se
_chemical_formula_sum   'Li1 Y2 Mo1 P3 Se1'
_cell_volume   147.78463691
_cell_formula_units_Z   1
loop_
 _symmetry_equiv_pos_site_id
 _symmetry_equiv_pos_as_xyz
  1  'x, y, z'
loop_
 _atom_site_type_symbol
 _atom_site_label
 _atom_site_symmetry_multiplicity
 _atom_site_fract_x
 _atom_site_fract_y
 _atom_site_fract_z
 _atom_site_occupancy
  Y  Y0  1  0.00000000  0.00000000  0.00000000  1
  Y  Y1  1  0.50000000  0.50000000  0.50000000  1
  P  P2  1  0.50000000  0.50000000  0.00000000  1
  P  P3  1  0.50000000  0.00000000  0.50000000  1
  P  P4  1  0.00000000  0.50000000  0.50000000  1
  Mo  Mo5  1  0.57273018  0.35780271  0.79427488  1
  Se  Se6  1  0.01884974  0.57655512  0.57511822  1
  Li  Li7  1  0.89632965  0.77566097  0.74982619  1
