# generated using pymatgen
data_Li2Si4Te3F12
_symmetry_space_group_name_H-M   'P 1'
_cell_length_a   7.44954161
_cell_length_b   13.82258244
_cell_length_c   9.91513869
_cell_angle_alpha   90.00000000
_cell_angle_beta   90.00000000
_cell_angle_gamma   90.00000000
_symmetry_Int_Tables_number   1
_chemical_formula_structural   Li2Si4Te3F12
_chemical_formula_sum   'Li8 Si16 Te12 F48'
_cell_volume   1020.98069927
_cell_formula_units_Z   4
loop_
 _symmetry_equiv_pos_site_id
 _symmetry_equiv_pos_as_xyz
  1  'x, y, z'
loop_
 _atom_site_type_symbol
 _atom_site_label
 _atom_site_symmetry_multiplicity
 _atom_site_fract_x
 _atom_site_fract_y
 _atom_site_fract_z
 _atom_site_occupancy
  F  F0  1  0.34066593  0.35812089  0.65224117  1
  F  F1  1  0.65933407  0.64187911  0.65224117  1
  F  F2  1  0.15933407  0.85812089  0.84775883  1
  F  F3  1  0.84066593  0.14187911  0.84775883  1
  F  F4  1  0.65933407  0.64187911  0.34775883  1
  F  F5  1  0.34066593  0.35812089  0.34775883  1
  F  F6  1  0.84066593  0.14187911  0.15224117  1
  F  F7  1  0.15933407  0.85812089  0.15224117  1
  F  F8  1  0.44840368  0.11604652  0.08793923  1
  F  F9  1  0.55159632  0.88395348  0.08793923  1
  F  F10  1  0.05159632  0.61604652  0.41206077  1
  F  F11  1  0.94840368  0.38395348  0.41206077  1
  F  F12  1  0.55159632  0.88395348  0.91206077  1
  F  F13  1  0.44840368  0.11604652  0.91206077  1
  F  F14  1  0.94840368  0.38395348  0.58793923  1
  F  F15  1  0.05159632  0.61604652  0.58793923  1
  F  F16  1  0.71443526  0.56219021  0.93172438  1
  F  F17  1  0.28556474  0.43780979  0.93172438  1
  F  F18  1  0.78556474  0.06219021  0.56827562  1
  F  F19  1  0.21443526  0.93780979  0.56827562  1
  F  F20  1  0.28556474  0.43780979  0.06827562  1
  F  F21  1  0.71443526  0.56219021  0.06827562  1
  F  F22  1  0.21443526  0.93780979  0.43172438  1
  F  F23  1  0.78556474  0.06219021  0.43172438  1
  F  F24  1  0.67286086  0.43374592  0.90011291  1
  F  F25  1  0.32713914  0.56625408  0.90011291  1
  F  F26  1  0.82713914  0.93374592  0.59988709  1
  F  F27  1  0.17286086  0.06625408  0.59988709  1
  F  F28  1  0.32713914  0.56625408  0.09988709  1
  F  F29  1  0.67286086  0.43374592  0.09988709  1
  F  F30  1  0.17286086  0.06625408  0.40011291  1
  F  F31  1  0.82713914  0.93374592  0.40011291  1
  F  F32  1  0.95375080  0.25482273  0.68625831  1
  F  F33  1  0.04624920  0.74517727  0.68625831  1
  F  F34  1  0.54624920  0.75482273  0.81374169  1
  F  F35  1  0.45375080  0.24517727  0.81374169  1
  F  F36  1  0.04624920  0.74517727  0.31374169  1
  F  F37  1  0.95375080  0.25482273  0.31374169  1
  F  F38  1  0.45375080  0.24517727  0.18625831  1
  F  F39  1  0.54624920  0.75482273  0.18625831  1
  F  F40  1  0.00000000  0.50000000  0.19592522  1
  F  F41  1  0.50000000  0.00000000  0.30407478  1
  F  F42  1  0.00000000  0.50000000  0.80407478  1
  F  F43  1  0.50000000  0.00000000  0.69592522  1
  F  F44  1  0.00000000  0.50000000  0.58373418  1
  F  F45  1  0.50000000  0.00000000  0.91626582  1
  F  F46  1  0.00000000  0.50000000  0.41626582  1
  F  F47  1  0.50000000  0.00000000  0.08373418  1
  Li  Li48  1  0.35092497  0.50020110  0.91459107  1
  Li  Li49  1  0.64907503  0.49979890  0.91459107  1
  Li  Li50  1  0.14907503  0.00020110  0.58540893  1
  Li  Li51  1  0.85092497  0.99979890  0.58540893  1
  Li  Li52  1  0.64907503  0.49979890  0.08540893  1
  Li  Li53  1  0.35092497  0.50020110  0.08540893  1
  Li  Li54  1  0.85092497  0.99979890  0.41459107  1
  Li  Li55  1  0.14907503  0.00020110  0.41459107  1
  Si  Si56  1  0.59656342  0.17245495  0.09111439  1
  Si  Si57  1  -0.59656342  -0.17245495  0.09111439  1
  Si  Si58  1  -0.09656342  0.67245495  0.40888561  1
  Si  Si59  1  1.09656342  0.32754505  0.40888561  1
  Si  Si60  1  -0.59656342  -0.17245495  -0.09111439  1
  Si  Si61  1  0.59656342  0.17245495  -0.09111439  1
  Si  Si62  1  1.09656342  0.32754505  0.59111439  1
  Si  Si63  1  -0.09656342  0.67245495  0.59111439  1
  Si  Si64  1  0.81454189  0.01269994  0.00000000  1
  Si  Si65  1  0.18545811  0.98730006  0.00000000  1
  Si  Si66  1  0.68545811  0.51269994  0.50000000  1
  Si  Si67  1  0.31454189  0.48730006  0.50000000  1
  Si  Si68  1  0.00000000  0.00000000  0.69377344  1
  Si  Si69  1  0.50000000  0.50000000  0.80622656  1
  Si  Si70  1  0.00000000  0.00000000  0.30622656  1
  Si  Si71  1  0.50000000  0.50000000  0.19377344  1
  Te  Te72  1  0.76384204  0.16017245  0.00000000  1
  Te  Te73  1  0.23615796  0.83982755  0.00000000  1
  Te  Te74  1  0.73615796  0.66017245  0.50000000  1
  Te  Te75  1  0.26384204  0.33982755  0.50000000  1
  Te  Te76  1  0.00000000  0.50000000  0.00000000  1
  Te  Te77  1  0.50000000  0.00000000  0.50000000  1
  Te  Te78  1  0.62495762  0.87304107  0.00000000  1
  Te  Te79  1  0.37504238  0.12695893  0.00000000  1
  Te  Te80  1  0.87504238  0.37304107  0.50000000  1
  Te  Te81  1  0.12495762  0.62695893  0.50000000  1
  Te  Te82  1  0.00000000  0.00000000  0.50000000  1
  Te  Te83  1  0.50000000  0.50000000  0.00000000  1
