# generated using pymatgen
data_LiF
_symmetry_space_group_name_H-M   'P 1'
_cell_length_a   8.71752611
_cell_length_b   8.71752611
_cell_length_c   8.84446931
_cell_angle_alpha   90.00000000
_cell_angle_beta   90.00000000
_cell_angle_gamma   120.00000000
_symmetry_Int_Tables_number   1
_chemical_formula_structural   LiF
_chemical_formula_sum   'Li21 F21'
_cell_volume   582.08837282
_cell_formula_units_Z   21
loop_
 _symmetry_equiv_pos_site_id
 _symmetry_equiv_pos_as_xyz
  1  'x, y, z'
loop_
 _atom_site_type_symbol
 _atom_site_label
 _atom_site_symmetry_multiplicity
 _atom_site_fract_x
 _atom_site_fract_y
 _atom_site_fract_z
 _atom_site_occupancy
  F  F0  1  0.33333333  0.66666667  0.00000000  1
  F  F1  1  0.39150148  0.60849852  0.00000000  1
  F  F2  1  0.39150148  0.78300296  0.00000000  1
  F  F3  1  0.21699704  0.60849852  0.00000000  1
  F  F4  1  0.12771967  0.97797833  0.88046304  1
  F  F5  1  0.02202167  0.14974135  0.88046304  1
  F  F6  1  0.85025865  0.87228033  0.88046304  1
  F  F7  1  0.02202167  0.87228033  0.11953696  1
  F  F8  1  0.85025865  0.97797833  0.11953696  1
  F  F9  1  0.12771967  0.14974135  0.11953696  1
  F  F10  1  0.33333333  0.66666667  0.50000000  1
  F  F11  1  0.85171880  0.14828120  0.00000000  1
  F  F12  1  0.85171880  0.70343760  0.00000000  1
  F  F13  1  0.29656240  0.14828120  0.00000000  1
  F  F14  1  0.05173948  0.82470747  0.83940018  1
  F  F15  1  0.17529253  0.22703201  0.83940018  1
  F  F16  1  0.77296799  0.94826052  0.83940018  1
  F  F17  1  0.17529253  0.94826052  0.16059982  1
  F  F18  1  0.77296799  0.82470747  0.16059982  1
  F  F19  1  0.05173948  0.22703201  0.16059982  1
  F  F20  1  0.66666667  0.33333333  0.00000000  1
  Li  Li21  1  0.93856109  0.10462547  0.12265224  1
  Li  Li22  1  -0.10462547  0.83393562  0.12265224  1
  Li  Li23  1  -0.83393562  -0.93856109  0.12265224  1
  Li  Li24  1  -0.10462547  -0.93856109  -0.12265224  1
  Li  Li25  1  -0.83393562  0.10462547  -0.12265224  1
  Li  Li26  1  0.93856109  0.83393562  -0.12265224  1
  Li  Li27  1  0.06499958  0.20152138  0.78143302  1
  Li  Li28  1  0.79847862  0.86347821  0.78143302  1
  Li  Li29  1  0.13652179  0.93500042  0.78143302  1
  Li  Li30  1  0.79847862  0.93500042  0.21856698  1
  Li  Li31  1  0.13652179  0.20152138  0.21856698  1
  Li  Li32  1  0.06499958  0.86347821  0.21856698  1
  Li  Li33  1  0.61892319  0.00523396  0.17711632  1
  Li  Li34  1  0.99476604  0.61368924  0.17711632  1
  Li  Li35  1  0.38631076  0.38107681  0.17711632  1
  Li  Li36  1  0.99476604  0.38107681  0.82288368  1
  Li  Li37  1  0.38631076  0.00523396  0.82288368  1
  Li  Li38  1  0.61892319  0.61368924  0.82288368  1
  Li  Li39  1  0.76357283  0.23642717  0.00000000  1
  Li  Li40  1  0.76357283  0.52714566  0.00000000  1
  Li  Li41  1  0.47285434  0.23642717  0.00000000  1
