# generated using pymatgen
data_LiF
_symmetry_space_group_name_H-M   'P 1'
_cell_length_a   7.52346483
_cell_length_b   12.09950047
_cell_length_c   9.88617436
_cell_angle_alpha   90.00000000
_cell_angle_beta   90.00000000
_cell_angle_gamma   90.00000000
_symmetry_Int_Tables_number   1
_chemical_formula_structural   LiF
_chemical_formula_sum   'Li24 F24'
_cell_volume   899.94009589
_cell_formula_units_Z   24
loop_
 _symmetry_equiv_pos_site_id
 _symmetry_equiv_pos_as_xyz
  1  'x, y, z'
loop_
 _atom_site_type_symbol
 _atom_site_label
 _atom_site_symmetry_multiplicity
 _atom_site_fract_x
 _atom_site_fract_y
 _atom_site_fract_z
 _atom_site_occupancy
  F  F0  1  0.04485102  0.63756110  0.16077507  1
  F  F1  1  0.45514898  0.36243890  0.66077507  1
  F  F2  1  0.95514898  0.13756110  0.83922493  1
  F  F3  1  0.54485102  0.86243890  0.33922493  1
  F  F4  1  0.95514898  0.36243890  0.83922493  1
  F  F5  1  0.54485102  0.63756110  0.33922493  1
  F  F6  1  0.04485102  0.86243890  0.16077507  1
  F  F7  1  0.45514898  0.13756110  0.66077507  1
  F  F8  1  0.11304112  0.25000000  0.20539964  1
  F  F9  1  0.38695888  0.75000000  0.70539964  1
  F  F10  1  0.88695888  0.75000000  0.79460036  1
  F  F11  1  0.61304112  0.25000000  0.29460036  1
  F  F12  1  0.77387725  0.51500812  0.44446572  1
  F  F13  1  0.72612275  0.48499188  0.94446572  1
  F  F14  1  0.22612275  0.01500812  0.55553428  1
  F  F15  1  0.27387725  0.98499188  0.05553428  1
  F  F16  1  0.22612275  0.48499188  0.55553428  1
  F  F17  1  0.27387725  0.51500812  0.05553428  1
  F  F18  1  0.77387725  0.98499188  0.44446572  1
  F  F19  1  0.72612275  0.01500812  0.94446572  1
  F  F20  1  0.23034388  0.25000000  0.43169793  1
  F  F21  1  0.26965612  0.75000000  0.93169793  1
  F  F22  1  0.76965612  0.75000000  0.56830207  1
  F  F23  1  0.73034388  0.25000000  0.06830207  1
  Li  Li24  1  0.65326822  0.98941383  0.60556414  1
  Li  Li25  1  -0.15326822  -0.98941383  1.10556414  1
  Li  Li26  1  -0.65326822  1.48941383  -0.60556414  1
  Li  Li27  1  1.15326822  -0.48941383  -0.10556414  1
  Li  Li28  1  -0.65326822  -0.98941383  -0.60556414  1
  Li  Li29  1  1.15326822  0.98941383  -0.10556414  1
  Li  Li30  1  0.65326822  -0.48941383  0.60556414  1
  Li  Li31  1  -0.15326822  1.48941383  1.10556414  1
  Li  Li32  1  0.33479405  0.38366431  0.96683126  1
  Li  Li33  1  0.16520595  0.61633569  0.46683126  1
  Li  Li34  1  0.66520595  0.88366431  0.03316874  1
  Li  Li35  1  0.83479405  0.11633569  0.53316874  1
  Li  Li36  1  0.66520595  0.61633569  0.03316874  1
  Li  Li37  1  0.83479405  0.38366431  0.53316874  1
  Li  Li38  1  0.33479405  0.11633569  0.96683126  1
  Li  Li39  1  0.16520595  0.88366431  0.46683126  1
  Li  Li40  1  0.00000000  0.00000000  0.00000000  1
  Li  Li41  1  0.50000000  0.00000000  0.50000000  1
  Li  Li42  1  0.00000000  0.50000000  0.00000000  1
  Li  Li43  1  0.50000000  0.50000000  0.50000000  1
  Li  Li44  1  0.00000000  0.00000000  0.50000000  1
  Li  Li45  1  0.50000000  0.00000000  -0.00000000  1
  Li  Li46  1  0.00000000  0.50000000  0.50000000  1
  Li  Li47  1  0.50000000  0.50000000  0.00000000  1
