# generated using pymatgen
data_LiF
_symmetry_space_group_name_H-M   'P 1'
_cell_length_a   6.93552878
_cell_length_b   6.93552878
_cell_length_c   9.08770546
_cell_angle_alpha   90.00000000
_cell_angle_beta   90.00000000
_cell_angle_gamma   120.00000000
_symmetry_Int_Tables_number   1
_chemical_formula_structural   LiF
_chemical_formula_sum   'Li20 F20'
_cell_volume   378.56811394
_cell_formula_units_Z   20
loop_
 _symmetry_equiv_pos_site_id
 _symmetry_equiv_pos_as_xyz
  1  'x, y, z'
loop_
 _atom_site_type_symbol
 _atom_site_label
 _atom_site_symmetry_multiplicity
 _atom_site_fract_x
 _atom_site_fract_y
 _atom_site_fract_z
 _atom_site_occupancy
  F  F0  1  0.46386300  0.87273963  0.91782380  1
  F  F1  1  0.12726037  0.59112337  0.91782380  1
  F  F2  1  0.40887663  0.53613700  0.91782380  1
  F  F3  1  0.12726037  0.53613700  0.08217620  1
  F  F4  1  0.40887663  0.87273963  0.08217620  1
  F  F5  1  0.46386300  0.59112337  0.08217620  1
  F  F6  1  0.60187133  0.71257665  0.05980528  1
  F  F7  1  0.28742335  0.88929468  0.05980528  1
  F  F8  1  0.11070532  0.39812867  0.05980528  1
  F  F9  1  0.28742335  0.39812867  0.94019472  1
  F  F10  1  0.11070532  0.71257665  0.94019472  1
  F  F11  1  0.60187133  0.88929468  0.94019472  1
  F  F12  1  0.97063359  0.02936641  -0.00000000  1
  F  F13  1  0.97063359  0.94126718  -0.00000000  1
  F  F14  1  0.05873282  0.02936641  -0.00000000  1
  F  F15  1  0.48616284  0.51383716  0.50000000  1
  F  F16  1  0.48616284  0.97232568  0.50000000  1
  F  F17  1  0.02767432  0.51383716  0.50000000  1
  F  F18  1  0.00000000  0.00000000  0.40492717  1
  F  F19  1  0.00000000  0.00000000  0.59507283  1
  Li  Li20  1  0.29429330  0.06277510  0.59879598  1
  Li  Li21  1  -0.06277510  0.23151820  0.59879598  1
  Li  Li22  1  -0.23151820  -0.29429330  0.59879598  1
  Li  Li23  1  -0.06277510  -0.29429330  -0.59879598  1
  Li  Li24  1  -0.23151820  0.06277510  -0.59879598  1
  Li  Li25  1  0.29429330  0.23151820  -0.59879598  1
  Li  Li26  1  0.33333333  0.66666667  0.50000000  1
  Li  Li27  1  0.66666667  0.33333333  -0.00000000  1
  Li  Li28  1  0.32459168  0.87274891  0.58252363  1
  Li  Li29  1  0.12725109  0.45184277  0.58252363  1
  Li  Li30  1  0.54815723  0.67540832  0.58252363  1
  Li  Li31  1  0.12725109  0.67540832  0.41747637  1
  Li  Li32  1  0.54815723  0.87274891  0.41747637  1
  Li  Li33  1  0.32459168  0.45184277  0.41747637  1
  Li  Li34  1  0.89880361  0.52789275  0.24101144  1
  Li  Li35  1  0.47210725  0.37091086  0.24101144  1
  Li  Li36  1  0.62908914  0.10119639  0.24101144  1
  Li  Li37  1  0.47210725  0.10119639  0.75898856  1
  Li  Li38  1  0.62908914  0.52789275  0.75898856  1
  Li  Li39  1  0.89880361  0.37091086  0.75898856  1
