# generated using pymatgen
data_LiF
_symmetry_space_group_name_H-M   'P 1'
_cell_length_a   12.65566662
_cell_length_b   12.65566662
_cell_length_c   20.90260553
_cell_angle_alpha   90.00000000
_cell_angle_beta   90.00000000
_cell_angle_gamma   120.00000000
_symmetry_Int_Tables_number   1
_chemical_formula_structural   LiF
_chemical_formula_sum   'Li108 F108'
_cell_volume   2899.35309156
_cell_formula_units_Z   108
loop_
 _symmetry_equiv_pos_site_id
 _symmetry_equiv_pos_as_xyz
  1  'x, y, z'
loop_
 _atom_site_type_symbol
 _atom_site_label
 _atom_site_symmetry_multiplicity
 _atom_site_fract_x
 _atom_site_fract_y
 _atom_site_fract_z
 _atom_site_occupancy
  F  F0  1  0.00000000  0.00000000  0.18705124  1
  F  F1  1  0.00000000  0.00000000  0.31294876  1
  F  F2  1  0.00000000  0.00000000  0.81294876  1
  F  F3  1  0.00000000  0.00000000  0.68705124  1
  F  F4  1  0.66666667  0.33333333  0.52038458  1
  F  F5  1  0.66666667  0.33333333  0.64628209  1
  F  F6  1  0.66666667  0.33333333  0.14628209  1
  F  F7  1  0.66666667  0.33333333  0.02038458  1
  F  F8  1  0.33333333  0.66666667  0.85371791  1
  F  F9  1  0.33333333  0.66666667  0.97961542  1
  F  F10  1  0.33333333  0.66666667  0.47961542  1
  F  F11  1  0.33333333  0.66666667  0.35371791  1
  F  F12  1  0.63520140  0.05659259  0.27619747  1
  F  F13  1  0.94340741  0.57860881  0.27619747  1
  F  F14  1  0.42139119  0.36479860  0.27619747  1
  F  F15  1  0.05659259  0.63520140  0.22380253  1
  F  F16  1  0.57860881  0.94340741  0.22380253  1
  F  F17  1  0.36479860  0.42139119  0.22380253  1
  F  F18  1  0.36479860  0.94340741  0.72380253  1
  F  F19  1  0.05659259  0.42139119  0.72380253  1
  F  F20  1  0.57860881  0.63520140  0.72380253  1
  F  F21  1  0.94340741  0.36479860  0.77619747  1
  F  F22  1  0.42139119  0.05659259  0.77619747  1
  F  F23  1  0.63520140  0.57860881  0.77619747  1
  F  F24  1  0.30186807  0.38992592  0.60953081  1
  F  F25  1  0.61007408  0.91194215  0.60953081  1
  F  F26  1  0.08805785  0.69813193  0.60953081  1
  F  F27  1  0.72325926  0.96853474  0.55713586  1
  F  F28  1  0.24527548  0.27674074  0.55713586  1
  F  F29  1  0.03146526  0.75472452  0.55713586  1
  F  F30  1  0.03146526  0.27674074  0.05713586  1
  F  F31  1  0.72325926  0.75472452  0.05713586  1
  F  F32  1  0.24527548  0.96853474  0.05713586  1
  F  F33  1  0.61007408  0.69813193  0.10953081  1
  F  F34  1  0.08805785  0.38992592  0.10953081  1
  F  F35  1  0.30186807  0.91194215  0.10953081  1
  F  F36  1  0.96853474  0.72325926  0.94286414  1
  F  F37  1  0.27674074  0.24527548  0.94286414  1
  F  F38  1  0.75472452  0.03146526  0.94286414  1
  F  F39  1  0.38992592  0.30186807  0.89046919  1
  F  F40  1  0.91194215  0.61007408  0.89046919  1
  F  F41  1  0.69813193  0.08805785  0.89046919  1
  F  F42  1  0.69813193  0.61007408  0.39046919  1
  F  F43  1  0.38992592  0.08805785  0.39046919  1
  F  F44  1  0.91194215  0.30186807  0.39046919  1
  F  F45  1  0.27674074  0.03146526  0.44286414  1
  F  F46  1  0.75472452  0.72325926  0.44286414  1
  F  F47  1  0.96853474  0.24527548  0.44286414  1
  F  F48  1  0.45553732  0.23304815  0.82211764  1
  F  F49  1  0.76695185  0.22248916  0.82211764  1
  F  F50  1  0.77751084  0.54446268  0.82211764  1
  F  F51  1  0.23304815  0.45553732  0.67788236  1
  F  F52  1  0.22248916  0.76695185  0.67788236  1
  F  F53  1  0.54446268  0.77751084  0.67788236  1
  F  F54  1  0.54446268  0.76695185  0.17788236  1
  F  F55  1  0.23304815  0.77751084  0.17788236  1
  F  F56  1  0.22248916  0.45553732  0.17788236  1
  F  F57  1  0.76695185  0.54446268  0.32211764  1
  F  F58  1  0.77751084  0.23304815  0.32211764  1
  F  F59  1  0.45553732  0.22248916  0.32211764  1
  F  F60  1  0.12220398  0.56638149  0.15545097  1
  F  F61  1  0.43361851  0.55582250  0.15545097  1
  F  F62  1  0.44417750  0.87779602  0.15545097  1
  F  F63  1  0.89971482  0.78887065  0.01121570  1
  F  F64  1  0.88915583  0.10028518  0.01121570  1
  F  F65  1  0.21112935  0.11084417  0.01121570  1
  F  F66  1  0.21112935  0.10028518  0.51121570  1
  F  F67  1  0.89971482  0.11084417  0.51121570  1
  F  F68  1  0.88915583  0.78887065  0.51121570  1
  F  F69  1  0.43361851  0.87779602  0.65545097  1
  F  F70  1  0.44417750  0.56638149  0.65545097  1
  F  F71  1  0.12220398  0.55582250  0.65545097  1
  F  F72  1  0.78887065  0.89971482  0.48878430  1
  F  F73  1  0.10028518  0.88915583  0.48878430  1
  F  F74  1  0.11084417  0.21112935  0.48878430  1
  F  F75  1  0.56638149  0.12220398  0.34454903  1
  F  F76  1  0.55582250  0.43361851  0.34454903  1
  F  F77  1  0.87779602  0.44417750  0.34454903  1
  F  F78  1  0.87779602  0.43361851  0.84454903  1
  F  F79  1  0.56638149  0.44417750  0.84454903  1
  F  F80  1  0.55582250  0.12220398  0.84454903  1
  F  F81  1  0.10028518  0.21112935  0.98878430  1
  F  F82  1  0.11084417  0.89971482  0.98878430  1
  F  F83  1  0.78887065  0.88915583  0.98878430  1
  F  F84  1  0.91841659  -0.00000000  0.25000000  1
  F  F85  1  0.00000000  0.91841659  0.25000000  1
  F  F86  1  0.08158341  0.08158341  0.25000000  1
  F  F87  1  0.08158341  0.00000000  0.75000000  1
  F  F88  1  0.00000000  0.08158341  0.75000000  1
  F  F89  1  0.91841659  0.91841659  0.75000000  1
  F  F90  1  0.58508326  0.33333333  0.58333333  1
  F  F91  1  0.66666667  0.25174993  0.58333333  1
  F  F92  1  0.74825007  0.41491674  0.58333333  1
  F  F93  1  0.74825007  0.33333333  0.08333333  1
  F  F94  1  0.66666667  0.41491674  0.08333333  1
  F  F95  1  0.58508326  0.25174993  0.08333333  1
  F  F96  1  0.25174993  0.66666667  0.91666667  1
  F  F97  1  0.33333333  0.58508326  0.91666667  1
  F  F98  1  0.41491674  0.74825007  0.91666667  1
  F  F99  1  0.41491674  0.66666667  0.41666667  1
  F  F100  1  0.33333333  0.74825007  0.41666667  1
  F  F101  1  0.25174993  0.58508326  0.41666667  1
  F  F102  1  0.00000000  0.00000000  0.00000000  1
  F  F103  1  0.00000000  0.00000000  0.50000000  1
  F  F104  1  0.66666667  0.33333333  0.33333333  1
  F  F105  1  0.66666667  0.33333333  0.83333333  1
  F  F106  1  0.33333333  0.66666667  0.66666667  1
  F  F107  1  0.33333333  0.66666667  0.16666667  1
  Li  Li108  1  0.66628140  0.49087256  0.70847430  1
  Li  Li109  1  -0.49087256  0.17540883  0.70847430  1
  Li  Li110  1  -0.17540883  -0.66628140  0.70847430  1
  Li  Li111  1  0.49087256  0.66628140  -0.20847430  1
  Li  Li112  1  0.17540883  -0.49087256  -0.20847430  1
  Li  Li113  1  -0.66628140  -0.17540883  -0.20847430  1
  Li  Li114  1  -0.66628140  -0.49087256  -0.70847430  1
  Li  Li115  1  0.49087256  -0.17540883  -0.70847430  1
  Li  Li116  1  0.17540883  0.66628140  -0.70847430  1
  Li  Li117  1  -0.49087256  -0.66628140  1.20847430  1
  Li  Li118  1  -0.17540883  0.49087256  1.20847430  1
  Li  Li119  1  0.66628140  0.17540883  1.20847430  1
  Li  Li120  1  1.33294806  0.82420590  1.04180763  1
  Li  Li121  1  0.17579410  0.50874217  1.04180763  1
  Li  Li122  1  0.49125783  -0.33294806  1.04180763  1
  Li  Li123  1  1.15753923  0.99961473  0.12485903  1
  Li  Li124  1  0.84207550  -0.15753923  0.12485903  1
  Li  Li125  1  0.00038527  0.15792450  0.12485903  1
  Li  Li126  1  0.00038527  -0.15753923  -0.37514097  1
  Li  Li127  1  1.15753923  0.15792450  -0.37514097  1
  Li  Li128  1  0.84207550  0.99961473  -0.37514097  1
  Li  Li129  1  0.17579410  -0.33294806  1.54180763  1
  Li  Li130  1  0.49125783  0.82420590  1.54180763  1
  Li  Li131  1  1.33294806  0.50874217  1.54180763  1
  Li  Li132  1  0.99961473  1.15753923  1.37514097  1
  Li  Li133  1  -0.15753923  0.84207550  1.37514097  1
  Li  Li134  1  0.15792450  0.00038527  1.37514097  1
  Li  Li135  1  0.82420590  1.33294806  0.45819237  1
  Li  Li136  1  0.50874217  0.17579410  0.45819237  1
  Li  Li137  1  -0.33294806  0.49125783  0.45819237  1
  Li  Li138  1  -0.33294806  0.17579410  -0.04180763  1
  Li  Li139  1  0.82420590  0.49125783  -0.04180763  1
  Li  Li140  1  0.50874217  1.33294806  -0.04180763  1
  Li  Li141  1  -0.15753923  0.00038527  1.87514097  1
  Li  Li142  1  0.15792450  1.15753923  1.87514097  1
  Li  Li143  1  0.99961473  0.84207550  1.87514097  1
  Li  Li144  1  0.76947020  0.17219282  0.24309047  1
  Li  Li145  1  0.82780718  0.59727739  0.24309047  1
  Li  Li146  1  0.40272261  0.23052980  0.24309047  1
  Li  Li147  1  0.17219282  0.76947020  0.25690953  1
  Li  Li148  1  0.59727739  0.82780718  0.25690953  1
  Li  Li149  1  0.23052980  0.40272261  0.25690953  1
  Li  Li150  1  0.23052980  0.82780718  0.75690953  1
  Li  Li151  1  0.17219282  0.40272261  0.75690953  1
  Li  Li152  1  0.59727739  0.76947020  0.75690953  1
  Li  Li153  1  0.82780718  0.23052980  0.74309047  1
  Li  Li154  1  0.40272261  0.17219282  0.74309047  1
  Li  Li155  1  0.76947020  0.59727739  0.74309047  1
  Li  Li156  1  0.43613687  0.50552615  0.57642380  1
  Li  Li157  1  0.49447385  0.93061072  0.57642380  1
  Li  Li158  1  0.06938928  0.56386313  0.57642380  1
  Li  Li159  1  0.83885948  0.10280354  0.59024287  1
  Li  Li160  1  0.26394405  0.16114052  0.59024287  1
  Li  Li161  1  0.89719646  0.73605595  0.59024287  1
  Li  Li162  1  0.89719646  0.16114052  0.09024287  1
  Li  Li163  1  0.83885948  0.73605595  0.09024287  1
  Li  Li164  1  0.26394405  0.10280354  0.09024287  1
  Li  Li165  1  0.49447385  0.56386313  0.07642380  1
  Li  Li166  1  0.06938928  0.50552615  0.07642380  1
  Li  Li167  1  0.43613687  0.93061072  0.07642380  1
  Li  Li168  1  0.10280354  0.83885948  0.90975713  1
  Li  Li169  1  0.16114052  0.26394405  0.90975713  1
  Li  Li170  1  0.73605595  0.89719646  0.90975713  1
  Li  Li171  1  0.50552615  0.43613687  0.92357620  1
  Li  Li172  1  0.93061072  0.49447385  0.92357620  1
  Li  Li173  1  0.56386313  0.06938928  0.92357620  1
  Li  Li174  1  0.56386313  0.49447385  0.42357620  1
  Li  Li175  1  0.50552615  0.06938928  0.42357620  1
  Li  Li176  1  0.93061072  0.43613687  0.42357620  1
  Li  Li177  1  0.16114052  0.89719646  0.40975713  1
  Li  Li178  1  0.73605595  0.83885948  0.40975713  1
  Li  Li179  1  0.10280354  0.26394405  0.40975713  1
  Li  Li180  1  0.59692626  0.05959877  0.64796149  1
  Li  Li181  1  0.94040123  0.53732749  0.64796149  1
  Li  Li182  1  0.46267251  0.40307374  0.64796149  1
  Li  Li183  1  0.05959877  0.59692626  0.85203851  1
  Li  Li184  1  0.53732749  0.94040123  0.85203851  1
  Li  Li185  1  0.40307374  0.46267251  0.85203851  1
  Li  Li186  1  0.40307374  0.94040123  0.35203851  1
  Li  Li187  1  0.05959877  0.46267251  0.35203851  1
  Li  Li188  1  0.53732749  0.59692626  0.35203851  1
  Li  Li189  1  0.94040123  0.40307374  0.14796149  1
  Li  Li190  1  0.46267251  0.05959877  0.14796149  1
  Li  Li191  1  0.59692626  0.53732749  0.14796149  1
  Li  Li192  1  0.26359293  0.39293211  0.98129482  1
  Li  Li193  1  0.60706789  0.87066082  0.98129482  1
  Li  Li194  1  0.12933918  0.73640707  0.98129482  1
  Li  Li195  1  0.72626544  0.93025960  0.18537184  1
  Li  Li196  1  0.20399416  0.27373456  0.18537184  1
  Li  Li197  1  0.06974040  0.79600584  0.18537184  1
  Li  Li198  1  0.06974040  0.27373456  0.68537184  1
  Li  Li199  1  0.72626544  0.79600584  0.68537184  1
  Li  Li200  1  0.20399416  0.93025960  0.68537184  1
  Li  Li201  1  0.60706789  0.73640707  0.48129482  1
  Li  Li202  1  0.12933918  0.39293211  0.48129482  1
  Li  Li203  1  0.26359293  0.87066082  0.48129482  1
  Li  Li204  1  0.93025960  0.72626544  0.31462816  1
  Li  Li205  1  0.27373456  0.20399416  0.31462816  1
  Li  Li206  1  0.79600584  0.06974040  0.31462816  1
  Li  Li207  1  0.39293211  0.26359293  0.51870518  1
  Li  Li208  1  0.87066082  0.60706789  0.51870518  1
  Li  Li209  1  0.73640707  0.12933918  0.51870518  1
  Li  Li210  1  0.73640707  0.60706789  0.01870518  1
  Li  Li211  1  0.39293211  0.12933918  0.01870518  1
  Li  Li212  1  0.87066082  0.26359293  0.01870518  1
  Li  Li213  1  0.27373456  0.06974040  0.81462816  1
  Li  Li214  1  0.79600584  0.72626544  0.81462816  1
  Li  Li215  1  0.93025960  0.20399416  0.81462816  1
