# generated using pymatgen
data_LiF
_symmetry_space_group_name_H-M   'P 1'
_cell_length_a   8.13989984
_cell_length_b   8.13989984
_cell_length_c   10.62160968
_cell_angle_alpha   90.00000000
_cell_angle_beta   90.00000000
_cell_angle_gamma   120.00000000
_symmetry_Int_Tables_number   1
_chemical_formula_structural   LiF
_chemical_formula_sum   'Li18 F18'
_cell_volume   609.47948435
_cell_formula_units_Z   18
loop_
 _symmetry_equiv_pos_site_id
 _symmetry_equiv_pos_as_xyz
  1  'x, y, z'
loop_
 _atom_site_type_symbol
 _atom_site_label
 _atom_site_symmetry_multiplicity
 _atom_site_fract_x
 _atom_site_fract_y
 _atom_site_fract_z
 _atom_site_occupancy
  F  F0  1  0.81339334  0.49817354  0.25000000  1
  F  F1  1  0.50182646  0.31521980  0.25000000  1
  F  F2  1  0.68478020  0.18660666  0.25000000  1
  F  F3  1  0.18660666  0.50182646  0.75000000  1
  F  F4  1  0.49817354  0.68478020  0.75000000  1
  F  F5  1  0.31521980  0.81339334  0.75000000  1
  F  F6  1  0.33333333  0.66666667  0.25000000  1
  F  F7  1  0.66666667  0.33333333  0.75000000  1
  F  F8  1  0.33333333  0.66666667  0.64214822  1
  F  F9  1  0.66666667  0.33333333  0.14214822  1
  F  F10  1  0.66666667  0.33333333  0.35785178  1
  F  F11  1  0.33333333  0.66666667  0.85785178  1
  F  F12  1  0.89664736  0.82197201  0.25000000  1
  F  F13  1  0.17802799  0.07467534  0.25000000  1
  F  F14  1  0.92532466  0.10335264  0.25000000  1
  F  F15  1  0.10335264  0.17802799  0.75000000  1
  F  F16  1  0.82197201  0.92532466  0.75000000  1
  F  F17  1  0.07467534  0.89664736  0.75000000  1
  Li  Li18  1  0.00000000  0.00000000  0.25000000  1
  Li  Li19  1  0.00000000  0.00000000  0.75000000  1
  Li  Li20  1  0.68001292  0.91691640  0.38981492  1
  Li  Li21  1  -0.91691640  -0.23690349  0.38981492  1
  Li  Li22  1  0.23690349  -0.68001292  0.38981492  1
  Li  Li23  1  -0.68001292  -0.91691640  0.88981492  1
  Li  Li24  1  0.91691640  0.23690349  0.88981492  1
  Li  Li25  1  -0.23690349  0.68001292  0.88981492  1
  Li  Li26  1  -0.68001292  -0.91691640  -0.38981492  1
  Li  Li27  1  0.91691640  0.23690349  -0.38981492  1
  Li  Li28  1  -0.23690349  0.68001292  -0.38981492  1
  Li  Li29  1  0.68001292  0.91691640  0.11018508  1
  Li  Li30  1  -0.91691640  -0.23690349  0.11018508  1
  Li  Li31  1  0.23690349  -0.68001292  0.11018508  1
  Li  Li32  1  0.00000000  0.00000000  0.88508188  1
  Li  Li33  1  0.00000000  0.00000000  0.38508188  1
  Li  Li34  1  0.00000000  0.00000000  0.11491812  1
  Li  Li35  1  0.00000000  0.00000000  0.61491812  1
