# generated using pymatgen
data_LiF
_symmetry_space_group_name_H-M   'P 1'
_cell_length_a   6.90693579
_cell_length_b   9.27735271
_cell_length_c   8.93168534
_cell_angle_alpha   90.00000000
_cell_angle_beta   90.00000000
_cell_angle_gamma   90.00000000
_symmetry_Int_Tables_number   1
_chemical_formula_structural   LiF
_chemical_formula_sum   'Li24 F24'
_cell_volume   572.32524381
_cell_formula_units_Z   24
loop_
 _symmetry_equiv_pos_site_id
 _symmetry_equiv_pos_as_xyz
  1  'x, y, z'
loop_
 _atom_site_type_symbol
 _atom_site_label
 _atom_site_symmetry_multiplicity
 _atom_site_fract_x
 _atom_site_fract_y
 _atom_site_fract_z
 _atom_site_occupancy
  F  F0  1  0.84507277  0.41385229  0.29385220  1
  F  F1  1  0.65492723  0.58614771  0.79385220  1
  F  F2  1  0.15492723  0.91385229  0.70614780  1
  F  F3  1  0.34507277  0.08614771  0.20614780  1
  F  F4  1  0.15492723  0.58614771  0.70614780  1
  F  F5  1  0.34507277  0.41385229  0.20614780  1
  F  F6  1  0.84507277  0.08614771  0.29385220  1
  F  F7  1  0.65492723  0.91385229  0.79385220  1
  F  F8  1  0.29294338  0.33880504  0.24849621  1
  F  F9  1  0.20705662  0.66119496  0.74849621  1
  F  F10  1  0.70705662  0.83880504  0.75150379  1
  F  F11  1  0.79294338  0.16119496  0.25150379  1
  F  F12  1  0.70705662  0.66119496  0.75150379  1
  F  F13  1  0.79294338  0.33880504  0.25150379  1
  F  F14  1  0.29294338  0.16119496  0.24849621  1
  F  F15  1  0.20705662  0.83880504  0.74849621  1
  F  F16  1  0.93921496  0.21858685  0.52786921  1
  F  F17  1  0.56078504  0.78141315  0.02786921  1
  F  F18  1  0.06078504  0.71858685  0.47213079  1
  F  F19  1  0.43921496  0.28141315  0.97213079  1
  F  F20  1  0.06078504  0.78141315  0.47213079  1
  F  F21  1  0.43921496  0.21858685  0.97213079  1
  F  F22  1  0.93921496  0.28141315  0.52786921  1
  F  F23  1  0.56078504  0.71858685  0.02786921  1
  Li  Li24  1  0.41274849  0.47656588  0.56840145  1
  Li  Li25  1  0.08725151  -0.47656588  1.06840145  1
  Li  Li26  1  -0.41274849  0.97656588  -0.56840145  1
  Li  Li27  1  0.91274849  0.02343412  -0.06840145  1
  Li  Li28  1  -0.41274849  -0.47656588  -0.56840145  1
  Li  Li29  1  0.91274849  0.47656588  -0.06840145  1
  Li  Li30  1  0.41274849  0.02343412  0.56840145  1
  Li  Li31  1  0.08725151  0.97656588  1.06840145  1
  Li  Li32  1  0.86637790  0.68056676  0.71151288  1
  Li  Li33  1  0.63362210  0.31943324  0.21151288  1
  Li  Li34  1  0.13362210  0.18056676  0.28848712  1
  Li  Li35  1  0.36637790  0.81943324  0.78848712  1
  Li  Li36  1  0.13362210  0.31943324  0.28848712  1
  Li  Li37  1  0.36637790  0.68056676  0.78848712  1
  Li  Li38  1  0.86637790  0.81943324  0.71151288  1
  Li  Li39  1  0.63362210  0.18056676  0.21151288  1
  Li  Li40  1  0.01131062  0.98098667  0.20270168  1
  Li  Li41  1  0.48868938  0.01901333  0.70270168  1
  Li  Li42  1  0.98868938  0.48098667  0.79729832  1
  Li  Li43  1  0.51131062  0.51901333  0.29729832  1
  Li  Li44  1  0.98868938  0.01901333  0.79729832  1
  Li  Li45  1  0.51131062  0.98098667  0.29729832  1
  Li  Li46  1  0.01131062  0.51901333  0.20270168  1
  Li  Li47  1  0.48868938  0.48098667  0.70270168  1
