# generated using pymatgen
data_Li2Si4Te3F12
_symmetry_space_group_name_H-M   'P 1'
_cell_length_a   14.76596683
_cell_length_b   10.68437812
_cell_length_c   5.14428100
_cell_angle_alpha   90.00000000
_cell_angle_beta   90.00000000
_cell_angle_gamma   90.00000000
_symmetry_Int_Tables_number   1
_chemical_formula_structural   Li2Si4Te3F12
_chemical_formula_sum   'Li8 Si16 Te12 F48'
_cell_volume   811.58838153
_cell_formula_units_Z   4
loop_
 _symmetry_equiv_pos_site_id
 _symmetry_equiv_pos_as_xyz
  1  'x, y, z'
loop_
 _atom_site_type_symbol
 _atom_site_label
 _atom_site_symmetry_multiplicity
 _atom_site_fract_x
 _atom_site_fract_y
 _atom_site_fract_z
 _atom_site_occupancy
  F  F0  1  0.15622316  0.99351980  0.13427416  1
  F  F1  1  0.84377684  0.00648020  0.13427416  1
  F  F2  1  0.34377684  0.49351980  0.86572584  1
  F  F3  1  0.65622316  0.50648020  0.86572584  1
  F  F4  1  0.84377684  0.00648020  0.86572584  1
  F  F5  1  0.15622316  0.99351980  0.86572584  1
  F  F6  1  0.65622316  0.50648020  0.13427416  1
  F  F7  1  0.34377684  0.49351980  0.13427416  1
  F  F8  1  0.34603571  0.21867291  0.50000000  1
  F  F9  1  0.65396429  0.78132709  0.50000000  1
  F  F10  1  0.15396429  0.71867291  0.50000000  1
  F  F11  1  0.84603571  0.28132709  0.50000000  1
  F  F12  1  0.23205963  0.23035608  0.65145429  1
  F  F13  1  0.76794037  0.76964392  0.65145429  1
  F  F14  1  0.26794037  0.73035608  0.34854571  1
  F  F15  1  0.73205963  0.26964392  0.34854571  1
  F  F16  1  0.76794037  0.76964392  0.34854571  1
  F  F17  1  0.23205963  0.23035608  0.34854571  1
  F  F18  1  0.73205963  0.26964392  0.65145429  1
  F  F19  1  0.26794037  0.73035608  0.65145429  1
  F  F20  1  0.69171805  0.80150123  0.56584980  1
  F  F21  1  0.30828195  0.19849877  0.56584980  1
  F  F22  1  0.80828195  0.30150123  0.43415020  1
  F  F23  1  0.19171805  0.69849877  0.43415020  1
  F  F24  1  0.30828195  0.19849877  0.43415020  1
  F  F25  1  0.69171805  0.80150123  0.43415020  1
  F  F26  1  0.19171805  0.69849877  0.56584980  1
  F  F27  1  0.80828195  0.30150123  0.56584980  1
  F  F28  1  0.57216512  0.60641802  0.28519460  1
  F  F29  1  0.42783488  0.39358198  0.28519460  1
  F  F30  1  0.92783488  0.10641802  0.71480540  1
  F  F31  1  0.07216512  0.89358198  0.71480540  1
  F  F32  1  0.42783488  0.39358198  0.71480540  1
  F  F33  1  0.57216512  0.60641802  0.71480540  1
  F  F34  1  0.07216512  0.89358198  0.28519460  1
  F  F35  1  0.92783488  0.10641802  0.28519460  1
  F  F36  1  0.83213725  0.43432048  -0.00000000  1
  F  F37  1  0.16786275  0.56567952  -0.00000000  1
  F  F38  1  0.66786275  0.93432048  -0.00000000  1
  F  F39  1  0.33213725  0.06567952  0.00000000  1
  F  F40  1  0.21707867  0.28420882  0.05956215  1
  F  F41  1  0.78292133  0.71579118  0.05956215  1
  F  F42  1  0.28292133  0.78420882  0.94043785  1
  F  F43  1  0.71707867  0.21579118  0.94043785  1
  F  F44  1  0.78292133  0.71579118  0.94043785  1
  F  F45  1  0.21707867  0.28420882  0.94043785  1
  F  F46  1  0.71707867  0.21579118  0.05956215  1
  F  F47  1  0.28292133  0.78420882  0.05956215  1
  Li  Li48  1  0.96882205  0.80837582  0.50000000  1
  Li  Li49  1  0.03117795  0.19162418  0.50000000  1
  Li  Li50  1  0.53117795  0.30837582  0.50000000  1
  Li  Li51  1  0.46882205  0.69162418  0.50000000  1
  Li  Li52  1  0.04163865  0.62385477  0.50000000  1
  Li  Li53  1  0.95836135  0.37614523  0.50000000  1
  Li  Li54  1  0.45836135  0.12385477  0.50000000  1
  Li  Li55  1  0.54163865  0.87614523  0.50000000  1
  Si  Si56  1  0.15090463  0.18336786  0.84098576  1
  Si  Si57  1  -0.15090463  -0.18336786  0.84098576  1
  Si  Si58  1  0.34909537  0.68336786  -0.84098576  1
  Si  Si59  1  0.65090463  0.31663214  -0.84098576  1
  Si  Si60  1  -0.15090463  -0.18336786  -0.84098576  1
  Si  Si61  1  0.15090463  0.18336786  -0.84098576  1
  Si  Si62  1  0.65090463  0.31663214  0.84098576  1
  Si  Si63  1  0.34909537  0.68336786  0.84098576  1
  Si  Si64  1  0.00000000  0.50000000  0.00000000  1
  Si  Si65  1  0.50000000  0.00000000  0.00000000  1
  Si  Si66  1  0.00000000  0.50000000  0.50000000  1
  Si  Si67  1  0.50000000  0.00000000  0.50000000  1
  Si  Si68  1  0.00000000  0.00000000  0.50000000  1
  Si  Si69  1  0.50000000  0.50000000  0.50000000  1
  Si  Si70  1  0.00000000  0.00000000  0.00000000  1
  Si  Si71  1  0.50000000  0.50000000  0.00000000  1
  Te  Te72  1  0.21259575  0.50665924  0.35199150  1
  Te  Te73  1  0.78740425  0.49334076  0.35199150  1
  Te  Te74  1  0.28740425  0.00665924  0.64800850  1
  Te  Te75  1  0.71259575  0.99334076  0.64800850  1
  Te  Te76  1  0.78740425  0.49334076  0.64800850  1
  Te  Te77  1  0.21259575  0.50665924  0.64800850  1
  Te  Te78  1  0.71259575  0.99334076  0.35199150  1
  Te  Te79  1  0.28740425  0.00665924  0.35199150  1
  Te  Te80  1  0.96158527  0.19620518  0.00000000  1
  Te  Te81  1  0.03841473  0.80379482  0.00000000  1
  Te  Te82  1  0.53841473  0.69620518  0.00000000  1
  Te  Te83  1  0.46158527  0.30379482  -0.00000000  1
