# generated using pymatgen
data_LiF
_symmetry_space_group_name_H-M   'P 1'
_cell_length_a   14.21502951
_cell_length_b   14.21502951
_cell_length_c   9.29058024
_cell_angle_alpha   90.00000000
_cell_angle_beta   90.00000000
_cell_angle_gamma   90.00000000
_symmetry_Int_Tables_number   1
_chemical_formula_structural   LiF
_chemical_formula_sum   'Li64 F64'
_cell_volume   1877.32027211
_cell_formula_units_Z   64
loop_
 _symmetry_equiv_pos_site_id
 _symmetry_equiv_pos_as_xyz
  1  'x, y, z'
loop_
 _atom_site_type_symbol
 _atom_site_label
 _atom_site_symmetry_multiplicity
 _atom_site_fract_x
 _atom_site_fract_y
 _atom_site_fract_z
 _atom_site_occupancy
  F  F0  1  0.00000000  0.00000000  0.00000000  1
  F  F1  1  0.50000000  0.00000000  0.50000000  1
  F  F2  1  0.25000000  0.75000000  0.25000000  1
  F  F3  1  0.25000000  0.25000000  0.75000000  1
  F  F4  1  0.50000000  0.00000000  0.00000000  1
  F  F5  1  0.00000000  0.00000000  0.50000000  1
  F  F6  1  0.25000000  0.75000000  0.75000000  1
  F  F7  1  0.25000000  0.25000000  0.25000000  1
  F  F8  1  0.50000000  0.50000000  0.50000000  1
  F  F9  1  0.00000000  0.50000000  0.00000000  1
  F  F10  1  0.75000000  0.25000000  0.75000000  1
  F  F11  1  0.75000000  0.75000000  0.25000000  1
  F  F12  1  0.00000000  0.50000000  0.50000000  1
  F  F13  1  0.50000000  0.50000000  0.00000000  1
  F  F14  1  0.75000000  0.25000000  0.25000000  1
  F  F15  1  0.75000000  0.75000000  0.75000000  1
  F  F16  1  0.09975682  0.81072690  0.94058843  1
  F  F17  1  0.40024318  -0.81072690  1.44058843  1
  F  F18  1  -0.56072690  0.84975682  1.19058843  1
  F  F19  1  1.06072690  0.15024318  1.69058843  1
  F  F20  1  0.40024318  0.81072690  -0.94058843  1
  F  F21  1  0.09975682  -0.81072690  -0.44058843  1
  F  F22  1  1.06072690  0.84975682  -0.19058843  1
  F  F23  1  -0.56072690  0.15024318  -0.69058843  1
  F  F24  1  -0.09975682  -0.81072690  -0.94058843  1
  F  F25  1  0.59975682  0.81072690  -0.44058843  1
  F  F26  1  1.56072690  0.15024318  -0.19058843  1
  F  F27  1  -0.06072690  0.84975682  -0.69058843  1
  F  F28  1  0.59975682  -0.81072690  0.94058843  1
  F  F29  1  -0.09975682  0.81072690  1.44058843  1
  F  F30  1  -0.06072690  0.15024318  1.19058843  1
  F  F31  1  1.56072690  0.84975682  1.69058843  1
  F  F32  1  0.59975682  1.31072690  1.44058843  1
  F  F33  1  0.90024318  -0.31072690  1.94058843  1
  F  F34  1  -0.06072690  1.34975682  1.69058843  1
  F  F35  1  1.56072690  0.65024318  2.19058843  1
  F  F36  1  0.90024318  1.31072690  -0.44058843  1
  F  F37  1  0.59975682  -0.31072690  0.05941157  1
  F  F38  1  1.56072690  1.34975682  0.30941157  1
  F  F39  1  -0.06072690  0.65024318  -0.19058843  1
  F  F40  1  0.40024318  -0.31072690  -0.44058843  1
  F  F41  1  1.09975682  1.31072690  0.05941157  1
  F  F42  1  2.06072690  0.65024318  0.30941157  1
  F  F43  1  0.43927310  1.34975682  -0.19058843  1
  F  F44  1  1.09975682  -0.31072690  1.44058843  1
  F  F45  1  0.40024318  1.31072690  1.94058843  1
  F  F46  1  0.43927310  0.65024318  1.69058843  1
  F  F47  1  2.06072690  1.34975682  2.19058843  1
  F  F48  1  0.26926839  0.51926839  0.12500000  1
  F  F49  1  0.23073161  0.48073161  0.62500000  1
  F  F50  1  0.73073161  0.01926839  0.37500000  1
  F  F51  1  0.76926839  0.98073161  0.87500000  1
  F  F52  1  0.73073161  0.48073161  0.87500000  1
  F  F53  1  0.76926839  0.51926839  0.37500000  1
  F  F54  1  0.26926839  0.98073161  0.62500000  1
  F  F55  1  0.23073161  0.01926839  0.12500000  1
  F  F56  1  0.76926839  0.01926839  0.62500000  1
  F  F57  1  0.73073161  0.98073161  0.12500000  1
  F  F58  1  0.23073161  0.51926839  0.87500000  1
  F  F59  1  0.26926839  0.48073161  0.37500000  1
  F  F60  1  0.23073161  0.98073161  0.37500000  1
  F  F61  1  0.26926839  0.01926839  0.87500000  1
  F  F62  1  0.76926839  0.48073161  0.12500000  1
  F  F63  1  0.73073161  0.51926839  0.62500000  1
  Li  Li64  1  0.31614308  0.56614308  0.12500000  1
  Li  Li65  1  0.18385692  0.43385692  0.62500000  1
  Li  Li66  1  0.68385692  0.06614308  0.37500000  1
  Li  Li67  1  0.81614308  0.93385692  0.87500000  1
  Li  Li68  1  0.68385692  0.43385692  0.87500000  1
  Li  Li69  1  0.81614308  0.56614308  0.37500000  1
  Li  Li70  1  0.31614308  0.93385692  0.62500000  1
  Li  Li71  1  0.18385692  0.06614308  0.12500000  1
  Li  Li72  1  0.81614308  0.06614308  0.62500000  1
  Li  Li73  1  0.68385692  0.93385692  0.12500000  1
  Li  Li74  1  0.18385692  0.56614308  0.87500000  1
  Li  Li75  1  0.31614308  0.43385692  0.37500000  1
  Li  Li76  1  0.18385692  0.93385692  0.37500000  1
  Li  Li77  1  0.31614308  0.06614308  0.87500000  1
  Li  Li78  1  0.81614308  0.43385692  0.12500000  1
  Li  Li79  1  0.68385692  0.56614308  0.62500000  1
  Li  Li80  1  0.52919614  0.92383283  0.34716141  1
  Li  Li81  1  0.97080386  0.07616717  0.84716141  1
  Li  Li82  1  0.32616717  0.27919614  0.59716141  1
  Li  Li83  1  0.17383283  0.72080386  0.09716141  1
  Li  Li84  1  0.97080386  0.92383283  0.65283859  1
  Li  Li85  1  0.52919614  0.07616717  0.15283859  1
  Li  Li86  1  0.17383283  0.27919614  0.40283859  1
  Li  Li87  1  0.32616717  0.72080386  0.90283859  1
  Li  Li88  1  0.47080386  0.07616717  0.65283859  1
  Li  Li89  1  0.02919614  0.92383283  0.15283859  1
  Li  Li90  1  0.67383283  0.72080386  0.40283859  1
  Li  Li91  1  0.82616717  0.27919614  0.90283859  1
  Li  Li92  1  0.02919614  0.07616717  0.34716141  1
  Li  Li93  1  0.47080386  0.92383283  0.84716141  1
  Li  Li94  1  0.82616717  0.72080386  0.59716141  1
  Li  Li95  1  0.67383283  0.27919614  0.09716141  1
  Li  Li96  1  0.02919614  0.42383283  0.84716141  1
  Li  Li97  1  0.47080386  0.57616717  0.34716141  1
  Li  Li98  1  0.82616717  0.77919614  0.09716141  1
  Li  Li99  1  0.67383283  0.22080386  0.59716141  1
  Li  Li100  1  0.47080386  0.42383283  0.15283859  1
  Li  Li101  1  0.02919614  0.57616717  0.65283859  1
  Li  Li102  1  0.67383283  0.77919614  0.90283859  1
  Li  Li103  1  0.82616717  0.22080386  0.40283859  1
  Li  Li104  1  0.97080386  0.57616717  0.15283859  1
  Li  Li105  1  0.52919614  0.42383283  0.65283859  1
  Li  Li106  1  0.17383283  0.22080386  0.90283859  1
  Li  Li107  1  0.32616717  0.77919614  0.40283859  1
  Li  Li108  1  0.52919614  0.57616717  0.84716141  1
  Li  Li109  1  0.97080386  0.42383283  0.34716141  1
  Li  Li110  1  0.32616717  0.22080386  0.09716141  1
  Li  Li111  1  0.17383283  0.77919614  0.59716141  1
  Li  Li112  1  0.00000000  0.25000000  0.37500000  1
  Li  Li113  1  0.00000000  0.75000000  0.62500000  1
  Li  Li114  1  0.50000000  0.25000000  0.62500000  1
  Li  Li115  1  0.50000000  0.75000000  0.37500000  1
  Li  Li116  1  0.50000000  0.75000000  0.87500000  1
  Li  Li117  1  0.50000000  0.25000000  0.12500000  1
  Li  Li118  1  0.00000000  0.75000000  0.12500000  1
  Li  Li119  1  0.00000000  0.25000000  0.87500000  1
  Li  Li120  1  0.00000000  0.25000000  0.12500000  1
  Li  Li121  1  0.00000000  0.75000000  0.37500000  1
  Li  Li122  1  0.00000000  0.75000000  0.87500000  1
  Li  Li123  1  0.00000000  0.25000000  0.62500000  1
  Li  Li124  1  0.50000000  0.75000000  0.62500000  1
  Li  Li125  1  0.50000000  0.25000000  0.87500000  1
  Li  Li126  1  0.50000000  0.25000000  0.37500000  1
  Li  Li127  1  0.50000000  0.75000000  0.12500000  1
