# generated using pymatgen
data_LiF
_symmetry_space_group_name_H-M   'P 1'
_cell_length_a   7.86193029
_cell_length_b   7.86193029
_cell_length_c   29.96252675
_cell_angle_alpha   90.00000000
_cell_angle_beta   90.00000000
_cell_angle_gamma   120.00000000
_symmetry_Int_Tables_number   1
_chemical_formula_structural   LiF
_chemical_formula_sum   'Li72 F72'
_cell_volume   1603.86364620
_cell_formula_units_Z   72
loop_
 _symmetry_equiv_pos_site_id
 _symmetry_equiv_pos_as_xyz
  1  'x, y, z'
loop_
 _atom_site_type_symbol
 _atom_site_label
 _atom_site_symmetry_multiplicity
 _atom_site_fract_x
 _atom_site_fract_y
 _atom_site_fract_z
 _atom_site_occupancy
  F  F0  1  0.37380239  0.34677979  0.56941715  1
  F  F1  1  0.65322021  0.02702260  0.56941715  1
  F  F2  1  0.97297740  0.62619761  0.56941715  1
  F  F3  1  0.34677979  0.37380239  0.93058285  1
  F  F4  1  0.02702260  0.65322021  0.93058285  1
  F  F5  1  0.62619761  0.97297740  0.93058285  1
  F  F6  1  0.62619761  0.65322021  0.43058285  1
  F  F7  1  0.34677979  0.97297740  0.43058285  1
  F  F8  1  0.02702260  0.37380239  0.43058285  1
  F  F9  1  0.65322021  0.62619761  0.06941715  1
  F  F10  1  0.97297740  0.34677979  0.06941715  1
  F  F11  1  0.37380239  0.02702260  0.06941715  1
  F  F12  1  0.04046906  0.68011312  0.90275049  1
  F  F13  1  0.31988688  0.36035593  0.90275049  1
  F  F14  1  0.63964407  0.95953094  0.90275049  1
  F  F15  1  0.01344646  0.70713572  0.26391618  1
  F  F16  1  0.69368927  0.98655354  0.26391618  1
  F  F17  1  0.29286428  0.30631073  0.26391618  1
  F  F18  1  0.29286428  0.98655354  0.76391618  1
  F  F19  1  0.01344646  0.30631073  0.76391618  1
  F  F20  1  0.69368927  0.70713572  0.76391618  1
  F  F21  1  0.31988688  0.95953094  0.40275049  1
  F  F22  1  0.63964407  0.68011312  0.40275049  1
  F  F23  1  0.04046906  0.36035593  0.40275049  1
  F  F24  1  0.70713572  0.01344646  0.23608382  1
  F  F25  1  0.98655354  0.69368927  0.23608382  1
  F  F26  1  0.30631073  0.29286428  0.23608382  1
  F  F27  1  0.68011312  0.04046906  0.59724951  1
  F  F28  1  0.36035593  0.31988688  0.59724951  1
  F  F29  1  0.95953094  0.63964407  0.59724951  1
  F  F30  1  0.95953094  0.31988688  0.09724951  1
  F  F31  1  0.68011312  0.63964407  0.09724951  1
  F  F32  1  0.36035593  0.04046906  0.09724951  1
  F  F33  1  0.98655354  0.29286428  0.73608382  1
  F  F34  1  0.30631073  0.01344646  0.73608382  1
  F  F35  1  0.70713572  0.69368927  0.73608382  1
  F  F36  1  0.00000000  0.00000000  0.02654068  1
  F  F37  1  0.00000000  0.00000000  0.47345932  1
  F  F38  1  0.00000000  0.00000000  0.97345932  1
  F  F39  1  0.00000000  0.00000000  0.52654068  1
  F  F40  1  0.66666667  0.33333333  0.35987402  1
  F  F41  1  0.66666667  0.33333333  0.80679265  1
  F  F42  1  0.66666667  0.33333333  0.30679265  1
  F  F43  1  0.66666667  0.33333333  0.85987402  1
  F  F44  1  0.33333333  0.66666667  0.69320735  1
  F  F45  1  0.33333333  0.66666667  0.14012598  1
  F  F46  1  0.33333333  0.66666667  0.64012598  1
  F  F47  1  0.33333333  0.66666667  0.19320735  1
  F  F48  1  0.16007596  0.00000000  0.25000000  1
  F  F49  1  0.00000000  0.16007596  0.25000000  1
  F  F50  1  0.83992404  0.83992404  0.25000000  1
  F  F51  1  0.83992404  0.00000000  0.75000000  1
  F  F52  1  0.00000000  0.83992404  0.75000000  1
  F  F53  1  0.16007596  0.16007596  0.75000000  1
  F  F54  1  0.82674263  0.33333333  0.58333333  1
  F  F55  1  0.66666667  0.49340930  0.58333333  1
  F  F56  1  0.50659070  0.17325737  0.58333333  1
  F  F57  1  0.50659070  0.33333333  0.08333333  1
  F  F58  1  0.66666667  0.17325737  0.08333333  1
  F  F59  1  0.82674263  0.49340930  0.08333333  1
  F  F60  1  0.49340930  0.66666667  0.91666667  1
  F  F61  1  0.33333333  0.82674263  0.91666667  1
  F  F62  1  0.17325737  0.50659070  0.91666667  1
  F  F63  1  0.17325737  0.66666667  0.41666667  1
  F  F64  1  0.33333333  0.50659070  0.41666667  1
  F  F65  1  0.49340930  0.82674263  0.41666667  1
  F  F66  1  0.00000000  0.00000000  0.25000000  1
  F  F67  1  0.00000000  0.00000000  0.75000000  1
  F  F68  1  0.66666667  0.33333333  0.58333333  1
  F  F69  1  0.66666667  0.33333333  0.08333333  1
  F  F70  1  0.33333333  0.66666667  0.91666667  1
  F  F71  1  0.33333333  0.66666667  0.41666667  1
  Li  Li72  1  0.84520192  0.31252084  0.47538205  1
  Li  Li73  1  -0.31252084  0.53268108  0.47538205  1
  Li  Li74  1  -0.53268108  -0.84520192  0.47538205  1
  Li  Li75  1  0.31252084  0.84520192  0.02461795  1
  Li  Li76  1  0.53268108  -0.31252084  0.02461795  1
  Li  Li77  1  -0.84520192  -0.53268108  0.02461795  1
  Li  Li78  1  -0.84520192  -0.31252084  -0.47538205  1
  Li  Li79  1  0.31252084  -0.53268108  -0.47538205  1
  Li  Li80  1  0.53268108  0.84520192  -0.47538205  1
  Li  Li81  1  -0.31252084  -0.84520192  0.97538205  1
  Li  Li82  1  -0.53268108  0.31252084  0.97538205  1
  Li  Li83  1  0.84520192  0.53268108  0.97538205  1
  Li  Li84  1  1.51186858  0.64585417  0.80871538  1
  Li  Li85  1  0.35414583  0.86601441  0.80871538  1
  Li  Li86  1  0.13398559  -0.51186858  0.80871538  1
  Li  Li87  1  0.97918751  1.17853525  0.35795128  1
  Li  Li88  1  1.19934774  0.02081249  0.35795128  1
  Li  Li89  1  -0.17853525  -0.19934774  0.35795128  1
  Li  Li90  1  -0.17853525  0.02081249  -0.14204872  1
  Li  Li91  1  0.97918751  -0.19934774  -0.14204872  1
  Li  Li92  1  1.19934774  1.17853525  -0.14204872  1
  Li  Li93  1  0.35414583  -0.51186858  1.30871538  1
  Li  Li94  1  0.13398559  0.64585417  1.30871538  1
  Li  Li95  1  1.51186858  0.86601441  1.30871538  1
  Li  Li96  1  1.17853525  0.97918751  1.14204872  1
  Li  Li97  1  0.02081249  1.19934774  1.14204872  1
  Li  Li98  1  -0.19934774  -0.17853525  1.14204872  1
  Li  Li99  1  0.64585417  1.51186858  0.69128462  1
  Li  Li100  1  0.86601441  0.35414583  0.69128462  1
  Li  Li101  1  -0.51186858  0.13398559  0.69128462  1
  Li  Li102  1  -0.51186858  0.35414583  0.19128462  1
  Li  Li103  1  0.64585417  0.13398559  0.19128462  1
  Li  Li104  1  0.86601441  1.51186858  0.19128462  1
  Li  Li105  1  0.02081249  -0.17853525  1.64204872  1
  Li  Li106  1  -0.19934774  0.97918751  1.64204872  1
  Li  Li107  1  1.17853525  1.19934774  1.64204872  1
  Li  Li108  1  0.46874619  0.00000000  0.25000000  1
  Li  Li109  1  0.00000000  0.46874619  0.25000000  1
  Li  Li110  1  0.53125381  0.53125381  0.25000000  1
  Li  Li111  1  0.53125381  0.00000000  0.75000000  1
  Li  Li112  1  0.00000000  0.53125381  0.75000000  1
  Li  Li113  1  0.46874619  0.46874619  0.75000000  1
  Li  Li114  1  0.13541286  0.33333333  0.58333333  1
  Li  Li115  1  0.66666667  0.80207953  0.58333333  1
  Li  Li116  1  0.19792047  0.86458714  0.58333333  1
  Li  Li117  1  0.19792047  0.33333333  0.08333333  1
  Li  Li118  1  0.66666667  0.86458714  0.08333333  1
  Li  Li119  1  0.13541286  0.80207953  0.08333333  1
  Li  Li120  1  0.80207953  0.66666667  0.91666667  1
  Li  Li121  1  0.33333333  0.13541286  0.91666667  1
  Li  Li122  1  0.86458714  0.19792047  0.91666667  1
  Li  Li123  1  0.86458714  0.66666667  0.41666667  1
  Li  Li124  1  0.33333333  0.19792047  0.41666667  1
  Li  Li125  1  0.80207953  0.13541286  0.41666667  1
  Li  Li126  1  0.50000000  0.00000000  0.00000000  1
  Li  Li127  1  0.00000000  0.50000000  0.00000000  1
  Li  Li128  1  0.50000000  0.50000000  0.00000000  1
  Li  Li129  1  0.00000000  0.50000000  0.50000000  1
  Li  Li130  1  0.50000000  0.00000000  0.50000000  1
  Li  Li131  1  0.50000000  0.50000000  0.50000000  1
  Li  Li132  1  0.16666667  0.33333333  0.33333333  1
  Li  Li133  1  0.66666667  0.83333333  0.33333333  1
  Li  Li134  1  0.16666667  0.83333333  0.33333333  1
  Li  Li135  1  0.66666667  0.83333333  0.83333333  1
  Li  Li136  1  0.16666667  0.33333333  0.83333333  1
  Li  Li137  1  0.16666667  0.83333333  0.83333333  1
  Li  Li138  1  0.83333333  0.66666667  0.66666667  1
  Li  Li139  1  0.33333333  0.16666667  0.66666667  1
  Li  Li140  1  0.83333333  0.16666667  0.66666667  1
  Li  Li141  1  0.33333333  0.16666667  0.16666667  1
  Li  Li142  1  0.83333333  0.66666667  0.16666667  1
  Li  Li143  1  0.83333333  0.16666667  0.16666667  1
