# generated using pymatgen
data_LiF
_symmetry_space_group_name_H-M   'P 1'
_cell_length_a   3.93877239
_cell_length_b   10.60659709
_cell_length_c   7.05959413
_cell_angle_alpha   90.00000000
_cell_angle_beta   90.00000000
_cell_angle_gamma   90.00000000
_symmetry_Int_Tables_number   1
_chemical_formula_structural   LiF
_chemical_formula_sum   'Li24 F24'
_cell_volume   294.92846476
_cell_formula_units_Z   24
loop_
 _symmetry_equiv_pos_site_id
 _symmetry_equiv_pos_as_xyz
  1  'x, y, z'
loop_
 _atom_site_type_symbol
 _atom_site_label
 _atom_site_symmetry_multiplicity
 _atom_site_fract_x
 _atom_site_fract_y
 _atom_site_fract_z
 _atom_site_occupancy
  F  F0  1  0.54407309  0.58765549  0.89574729  1
  F  F1  1  0.95592691  0.41234451  0.39574729  1
  F  F2  1  0.45592691  0.08765549  0.10425271  1
  F  F3  1  0.04407309  0.91234451  0.60425271  1
  F  F4  1  0.45592691  0.41234451  0.10425271  1
  F  F5  1  0.04407309  0.58765549  0.60425271  1
  F  F6  1  0.54407309  0.91234451  0.89574729  1
  F  F7  1  0.95592691  0.08765549  0.39574729  1
  F  F8  1  0.27074231  0.25000000  0.29421580  1
  F  F9  1  0.22925769  0.75000000  0.79421580  1
  F  F10  1  0.72925769  0.75000000  0.70578420  1
  F  F11  1  0.77074231  0.25000000  0.20578420  1
  F  F12  1  0.32006893  0.91046992  0.78205192  1
  F  F13  1  0.17993107  0.08953008  0.28205192  1
  F  F14  1  0.67993107  0.41046992  0.21794808  1
  F  F15  1  0.82006893  0.58953008  0.71794808  1
  F  F16  1  0.67993107  0.08953008  0.21794808  1
  F  F17  1  0.82006893  0.91046992  0.71794808  1
  F  F18  1  0.32006893  0.58953008  0.78205192  1
  F  F19  1  0.17993107  0.41046992  0.28205192  1
  F  F20  1  0.00000000  0.00000000  0.00000000  1
  F  F21  1  0.50000000  -0.00000000  0.50000000  1
  F  F22  1  0.00000000  0.50000000  0.00000000  1
  F  F23  1  0.50000000  0.50000000  0.50000000  1
  Li  Li24  1  0.67509213  0.40319870  0.35866808  1
  Li  Li25  1  -0.17509213  -0.40319870  0.85866808  1
  Li  Li26  1  -0.67509213  0.90319870  -0.35866808  1
  Li  Li27  1  1.17509213  0.09680130  0.14133192  1
  Li  Li28  1  -0.67509213  -0.40319870  -0.35866808  1
  Li  Li29  1  1.17509213  0.40319870  0.14133192  1
  Li  Li30  1  0.67509213  0.09680130  0.35866808  1
  Li  Li31  1  -0.17509213  0.90319870  0.85866808  1
  Li  Li32  1  0.53461932  0.18613142  0.49527978  1
  Li  Li33  1  0.96538068  0.81386858  0.99527978  1
  Li  Li34  1  0.46538068  0.68613142  0.50472022  1
  Li  Li35  1  0.03461932  0.31386858  0.00472022  1
  Li  Li36  1  0.46538068  0.81386858  0.50472022  1
  Li  Li37  1  0.03461932  0.18613142  0.00472022  1
  Li  Li38  1  0.53461932  0.31386858  0.49527978  1
  Li  Li39  1  0.96538068  0.68613142  0.99527978  1
  Li  Li40  1  0.12663938  0.25000000  0.67505897  1
  Li  Li41  1  0.37336062  0.75000000  0.17505897  1
  Li  Li42  1  0.87336062  0.75000000  0.32494103  1
  Li  Li43  1  0.62663938  0.25000000  0.82494103  1
  Li  Li44  1  0.00000000  0.00000000  0.50000000  1
  Li  Li45  1  0.50000000  -0.00000000  -0.00000000  1
  Li  Li46  1  0.00000000  0.50000000  0.50000000  1
  Li  Li47  1  0.50000000  0.50000000  0.00000000  1
