# generated using pymatgen
data_LiF
_symmetry_space_group_name_H-M   'P 1'
_cell_length_a   6.05874264
_cell_length_b   6.05874264
_cell_length_c   11.75471119
_cell_angle_alpha   90.00000000
_cell_angle_beta   90.00000000
_cell_angle_gamma   120.00000000
_symmetry_Int_Tables_number   1
_chemical_formula_structural   LiF
_chemical_formula_sum   'Li12 F12'
_cell_volume   373.68666953
_cell_formula_units_Z   12
loop_
 _symmetry_equiv_pos_site_id
 _symmetry_equiv_pos_as_xyz
  1  'x, y, z'
loop_
 _atom_site_type_symbol
 _atom_site_label
 _atom_site_symmetry_multiplicity
 _atom_site_fract_x
 _atom_site_fract_y
 _atom_site_fract_z
 _atom_site_occupancy
  F  F0  1  0.00000000  0.00000000  0.15055975  1
  F  F1  1  0.00000000  0.00000000  0.34944025  1
  F  F2  1  0.00000000  0.00000000  -0.15055975  1
  F  F3  1  0.00000000  0.00000000  0.65055975  1
  F  F4  1  0.66666667  0.33333333  0.48389309  1
  F  F5  1  0.66666667  0.33333333  0.68277358  1
  F  F6  1  0.66666667  0.33333333  0.18277358  1
  F  F7  1  0.66666667  0.33333333  0.98389309  1
  F  F8  1  0.33333333  0.66666667  0.81722642  1
  F  F9  1  0.33333333  0.66666667  1.01610691  1
  F  F10  1  0.33333333  0.66666667  0.51610691  1
  F  F11  1  0.33333333  0.66666667  1.31722642  1
  Li  Li12  1  0.00000000  0.00000000  0.00000000  1
  Li  Li13  1  0.00000000  0.00000000  0.50000000  1
  Li  Li14  1  0.66666667  0.33333333  0.33333333  1
  Li  Li15  1  0.66666667  0.33333333  0.83333333  1
  Li  Li16  1  0.33333333  0.66666667  0.66666667  1
  Li  Li17  1  0.33333333  0.66666667  0.16666667  1
  Li  Li18  1  0.00000000  0.00000000  0.25000000  1
  Li  Li19  1  0.00000000  0.00000000  0.75000000  1
  Li  Li20  1  0.66666667  0.33333333  0.58333333  1
  Li  Li21  1  0.66666667  0.33333333  0.08333333  1
  Li  Li22  1  0.33333333  0.66666667  0.91666667  1
  Li  Li23  1  0.33333333  0.66666667  0.41666667  1
