# generated using pymatgen
data_LiF
_symmetry_space_group_name_H-M   'P 1'
_cell_length_a   9.80184070
_cell_length_b   9.80184070
_cell_length_c   26.64210944
_cell_angle_alpha   90.00000000
_cell_angle_beta   90.00000000
_cell_angle_gamma   90.00000000
_symmetry_Int_Tables_number   1
_chemical_formula_structural   LiF
_chemical_formula_sum   'Li64 F64'
_cell_volume   2559.66946642
_cell_formula_units_Z   64
loop_
 _symmetry_equiv_pos_site_id
 _symmetry_equiv_pos_as_xyz
  1  'x, y, z'
loop_
 _atom_site_type_symbol
 _atom_site_label
 _atom_site_symmetry_multiplicity
 _atom_site_fract_x
 _atom_site_fract_y
 _atom_site_fract_z
 _atom_site_occupancy
  F  F0  1  0.00000000  0.25000000  0.37500000  1
  F  F1  1  0.00000000  0.75000000  0.62500000  1
  F  F2  1  0.50000000  0.25000000  0.62500000  1
  F  F3  1  0.50000000  0.75000000  0.37500000  1
  F  F4  1  0.50000000  0.75000000  0.87500000  1
  F  F5  1  0.50000000  0.25000000  0.12500000  1
  F  F6  1  0.00000000  0.75000000  0.12500000  1
  F  F7  1  0.00000000  0.25000000  0.87500000  1
  F  F8  1  0.20380018  0.45380018  0.12500000  1
  F  F9  1  0.29619982  0.54619982  0.62500000  1
  F  F10  1  0.79619982  0.95380018  0.37500000  1
  F  F11  1  0.70380018  0.04619982  0.87500000  1
  F  F12  1  0.79619982  0.54619982  0.87500000  1
  F  F13  1  0.70380018  0.45380018  0.37500000  1
  F  F14  1  0.20380018  0.04619982  0.62500000  1
  F  F15  1  0.29619982  0.95380018  0.12500000  1
  F  F16  1  0.70380018  0.95380018  0.62500000  1
  F  F17  1  0.79619982  0.04619982  0.12500000  1
  F  F18  1  0.29619982  0.45380018  0.87500000  1
  F  F19  1  0.20380018  0.54619982  0.37500000  1
  F  F20  1  0.29619982  0.04619982  0.37500000  1
  F  F21  1  0.20380018  0.95380018  0.87500000  1
  F  F22  1  0.70380018  0.54619982  0.12500000  1
  F  F23  1  0.79619982  0.45380018  0.62500000  1
  F  F24  1  0.57190207  0.82190207  0.12500000  1
  F  F25  1  0.92809793  0.17809793  0.62500000  1
  F  F26  1  0.42809793  0.32190207  0.37500000  1
  F  F27  1  0.07190207  0.67809793  0.87500000  1
  F  F28  1  0.42809793  0.17809793  0.87500000  1
  F  F29  1  0.07190207  0.82190207  0.37500000  1
  F  F30  1  0.57190207  0.67809793  0.62500000  1
  F  F31  1  0.92809793  0.32190207  0.12500000  1
  F  F32  1  0.07190207  0.32190207  0.62500000  1
  F  F33  1  0.42809793  0.67809793  0.12500000  1
  F  F34  1  0.92809793  0.82190207  0.87500000  1
  F  F35  1  0.57190207  0.17809793  0.37500000  1
  F  F36  1  0.92809793  0.67809793  0.37500000  1
  F  F37  1  0.57190207  0.32190207  0.87500000  1
  F  F38  1  0.07190207  0.17809793  0.12500000  1
  F  F39  1  0.42809793  0.82190207  0.62500000  1
  F  F40  1  0.00000000  0.00000000  0.00000000  1
  F  F41  1  0.50000000  0.00000000  0.50000000  1
  F  F42  1  0.25000000  0.75000000  0.25000000  1
  F  F43  1  0.25000000  0.25000000  0.75000000  1
  F  F44  1  0.50000000  0.00000000  0.00000000  1
  F  F45  1  0.00000000  0.00000000  0.50000000  1
  F  F46  1  0.25000000  0.75000000  0.75000000  1
  F  F47  1  0.25000000  0.25000000  0.25000000  1
  F  F48  1  0.50000000  0.50000000  0.50000000  1
  F  F49  1  0.00000000  0.50000000  0.00000000  1
  F  F50  1  0.75000000  0.25000000  0.75000000  1
  F  F51  1  0.75000000  0.75000000  0.25000000  1
  F  F52  1  0.00000000  0.50000000  0.50000000  1
  F  F53  1  0.50000000  0.50000000  0.00000000  1
  F  F54  1  0.75000000  0.25000000  0.25000000  1
  F  F55  1  0.75000000  0.75000000  0.75000000  1
  F  F56  1  0.00000000  0.25000000  0.12500000  1
  F  F57  1  0.00000000  0.75000000  0.37500000  1
  F  F58  1  0.00000000  0.75000000  0.87500000  1
  F  F59  1  0.00000000  0.25000000  0.62500000  1
  F  F60  1  0.50000000  0.75000000  0.62500000  1
  F  F61  1  0.50000000  0.25000000  0.87500000  1
  F  F62  1  0.50000000  0.25000000  0.37500000  1
  F  F63  1  0.50000000  0.75000000  0.12500000  1
  Li  Li64  1  0.24578930  0.29878216  0.62528784  1
  Li  Li65  1  0.25421070  -0.29878216  1.12528784  1
  Li  Li66  1  -0.04878216  0.99578930  0.87528784  1
  Li  Li67  1  0.54878216  0.00421070  1.37528784  1
  Li  Li68  1  0.25421070  0.29878216  -0.62528784  1
  Li  Li69  1  0.24578930  -0.29878216  -0.12528784  1
  Li  Li70  1  0.54878216  0.99578930  0.12471216  1
  Li  Li71  1  -0.04878216  0.00421070  -0.37528784  1
  Li  Li72  1  -0.24578930  -0.29878216  -0.62528784  1
  Li  Li73  1  0.74578930  0.29878216  -0.12528784  1
  Li  Li74  1  1.04878216  0.00421070  0.12471216  1
  Li  Li75  1  0.45121784  0.99578930  -0.37528784  1
  Li  Li76  1  0.74578930  -0.29878216  0.62528784  1
  Li  Li77  1  -0.24578930  0.29878216  1.12528784  1
  Li  Li78  1  0.45121784  0.00421070  0.87528784  1
  Li  Li79  1  1.04878216  0.99578930  1.37528784  1
  Li  Li80  1  0.74578930  0.79878216  1.12528784  1
  Li  Li81  1  0.75421070  0.20121784  1.62528784  1
  Li  Li82  1  0.45121784  1.49578930  1.37528784  1
  Li  Li83  1  1.04878216  0.50421070  1.87528784  1
  Li  Li84  1  0.75421070  0.79878216  -0.12528784  1
  Li  Li85  1  0.74578930  0.20121784  0.37471216  1
  Li  Li86  1  1.04878216  1.49578930  0.62471216  1
  Li  Li87  1  0.45121784  0.50421070  0.12471216  1
  Li  Li88  1  0.25421070  0.20121784  -0.12528784  1
  Li  Li89  1  1.24578930  0.79878216  0.37471216  1
  Li  Li90  1  1.54878216  0.50421070  0.62471216  1
  Li  Li91  1  0.95121784  1.49578930  0.12471216  1
  Li  Li92  1  1.24578930  0.20121784  1.12528784  1
  Li  Li93  1  0.25421070  0.79878216  1.62528784  1
  Li  Li94  1  0.95121784  0.50421070  1.37528784  1
  Li  Li95  1  1.54878216  1.49578930  1.87528784  1
  Li  Li96  1  0.16233045  0.66228523  0.97110607  1
  Li  Li97  1  0.33766955  0.33771477  0.47110607  1
  Li  Li98  1  0.58771477  0.91233045  0.22110607  1
  Li  Li99  1  0.91228523  0.08766955  0.72110607  1
  Li  Li100  1  0.33766955  0.66228523  0.02889393  1
  Li  Li101  1  0.16233045  0.33771477  0.52889393  1
  Li  Li102  1  0.91228523  0.91233045  0.77889393  1
  Li  Li103  1  0.58771477  0.08766955  0.27889393  1
  Li  Li104  1  0.83766955  0.33771477  0.02889393  1
  Li  Li105  1  0.66233045  0.66228523  0.52889393  1
  Li  Li106  1  0.41228523  0.08766955  0.77889393  1
  Li  Li107  1  0.08771477  0.91233045  0.27889393  1
  Li  Li108  1  0.66233045  0.33771477  0.97110607  1
  Li  Li109  1  0.83766955  0.66228523  0.47110607  1
  Li  Li110  1  0.08771477  0.08766955  0.22110607  1
  Li  Li111  1  0.41228523  0.91233045  0.72110607  1
  Li  Li112  1  0.66233045  0.16228523  0.47110607  1
  Li  Li113  1  0.83766955  0.83771477  0.97110607  1
  Li  Li114  1  0.08771477  0.41233045  0.72110607  1
  Li  Li115  1  0.41228523  0.58766955  0.22110607  1
  Li  Li116  1  0.83766955  0.16228523  0.52889393  1
  Li  Li117  1  0.66233045  0.83771477  0.02889393  1
  Li  Li118  1  0.41228523  0.41233045  0.27889393  1
  Li  Li119  1  0.08771477  0.58766955  0.77889393  1
  Li  Li120  1  0.33766955  0.83771477  0.52889393  1
  Li  Li121  1  0.16233045  0.16228523  0.02889393  1
  Li  Li122  1  0.91228523  0.58766955  0.27889393  1
  Li  Li123  1  0.58771477  0.41233045  0.77889393  1
  Li  Li124  1  0.16233045  0.83771477  0.47110607  1
  Li  Li125  1  0.33766955  0.16228523  0.97110607  1
  Li  Li126  1  0.58771477  0.58766955  0.72110607  1
  Li  Li127  1  0.91228523  0.41233045  0.22110607  1
