# generated using pymatgen
data_Li2Y2As4P3Se
_symmetry_space_group_name_H-M   'P 1'
_cell_length_a   5.88411957
_cell_length_b   6.05647981
_cell_length_c   7.07071250
_cell_angle_alpha   92.25686524
_cell_angle_beta   95.40629588
_cell_angle_gamma   99.65816254
_symmetry_Int_Tables_number   1
_chemical_formula_structural   Li2Y2As4P3Se
_chemical_formula_sum   'Li2 Y2 As4 P3 Se1'
_cell_volume   246.91156412
_cell_formula_units_Z   1
loop_
 _symmetry_equiv_pos_site_id
 _symmetry_equiv_pos_as_xyz
  1  'x, y, z'
loop_
 _atom_site_type_symbol
 _atom_site_label
 _atom_site_symmetry_multiplicity
 _atom_site_fract_x
 _atom_site_fract_y
 _atom_site_fract_z
 _atom_site_occupancy
  Se  Se0  1  0.00000000  0.00000000  0.00000000  1
  P  P1  1  0.50000000  0.50000000  0.50000000  1
  P  P2  1  0.25000000  0.25000000  0.25000000  1
  P  P3  1  0.75000000  0.25000000  0.00000000  1
  As  As4  1  0.25000000  0.75000000  0.50000000  1
  As  As5  1  0.75961854  0.24913155  0.23714230  1
  As  As6  1  0.22271736  0.61297942  0.89789649  1
  As  As7  1  0.57165972  0.23070048  0.82746901  1
  Li  Li8  1  0.65057078  0.34107966  0.78935526  1
  Li  Li9  1  0.15821779  0.51407239  0.91118239  1
  Y  Y10  1  0.29195265  0.16252541  0.18205229  1
  Y  Y11  1  0.99264523  0.56916511  0.19989473  1
