# generated using pymatgen
data_Li3Y2(P2Se)2
_symmetry_space_group_name_H-M   'P 1'
_cell_length_a   5.60998749
_cell_length_b   5.95277445
_cell_length_c   7.43498803
_cell_angle_alpha   93.61520247
_cell_angle_beta   97.87315939
_cell_angle_gamma   104.52083147
_symmetry_Int_Tables_number   1
_chemical_formula_structural   Li3Y2(P2Se)2
_chemical_formula_sum   'Li3 Y2 P4 Se2'
_cell_volume   236.86299009
_cell_formula_units_Z   1
loop_
 _symmetry_equiv_pos_site_id
 _symmetry_equiv_pos_as_xyz
  1  'x, y, z'
loop_
 _atom_site_type_symbol
 _atom_site_label
 _atom_site_symmetry_multiplicity
 _atom_site_fract_x
 _atom_site_fract_y
 _atom_site_fract_z
 _atom_site_occupancy
  Se  Se0  1  0.12500000  0.12500000  0.12500000  1
  Se  Se1  1  0.50000000  0.50000000  0.50000000  1
  P  P2  1  0.25000000  0.25000000  0.25000000  1
  P  P3  1  0.75000000  0.75000000  0.75000000  1
  P  P4  1  0.92841108  0.58315585  0.10452728  1
  P  P5  1  0.75797956  0.73683539  0.28757313  1
  Li  Li6  1  0.12811173  0.67292863  0.11589171  1
  Li  Li7  1  0.43909394  0.29969208  0.89090590  1
  Li  Li8  1  0.93063380  0.32545635  0.88834841  1
  Y  Y9  1  0.25457192  0.92110792  0.01678655  1
  Y  Y10  1  0.52740006  0.89392665  0.65419068  1
