# generated using pymatgen
data_Li2Si4Te3F12
_symmetry_space_group_name_H-M   'P 1'
_cell_length_a   14.76764687
_cell_length_b   14.76764687
_cell_length_c   7.13498636
_cell_angle_alpha   90.00000000
_cell_angle_beta   90.00000000
_cell_angle_gamma   90.00000000
_symmetry_Int_Tables_number   1
_chemical_formula_structural   Li2Si4Te3F12
_chemical_formula_sum   'Li8 Si16 Te12 F48'
_cell_volume   1556.02204136
_cell_formula_units_Z   4
loop_
 _symmetry_equiv_pos_site_id
 _symmetry_equiv_pos_as_xyz
  1  'x, y, z'
loop_
 _atom_site_type_symbol
 _atom_site_label
 _atom_site_symmetry_multiplicity
 _atom_site_fract_x
 _atom_site_fract_y
 _atom_site_fract_z
 _atom_site_occupancy
  F  F0  1  0.00000000  0.69064711  0.75946349  1
  F  F1  1  0.50000000  0.30935289  0.25946349  1
  F  F2  1  0.55935289  0.75000000  0.00946349  1
  F  F3  1  0.94064711  0.25000000  0.50946349  1
  F  F4  1  0.50000000  0.69064711  0.74053651  1
  F  F5  1  0.00000000  0.30935289  0.24053651  1
  F  F6  1  0.94064711  0.75000000  0.49053651  1
  F  F7  1  0.55935289  0.25000000  0.99053651  1
  F  F8  1  0.50000000  0.19064711  0.25946349  1
  F  F9  1  0.00000000  0.80935289  0.75946349  1
  F  F10  1  0.05935289  0.25000000  0.50946349  1
  F  F11  1  0.44064711  0.75000000  0.00946349  1
  F  F12  1  0.00000000  0.19064711  0.24053651  1
  F  F13  1  0.50000000  0.80935289  0.74053651  1
  F  F14  1  0.44064711  0.25000000  0.99053651  1
  F  F15  1  0.05935289  0.75000000  0.49053651  1
  F  F16  1  0.00000000  0.64418699  0.69144202  1
  F  F17  1  0.50000000  0.35581301  0.19144202  1
  F  F18  1  0.60581301  0.75000000  0.94144202  1
  F  F19  1  0.89418699  0.25000000  0.44144202  1
  F  F20  1  0.50000000  0.64418699  0.80855798  1
  F  F21  1  0.00000000  0.35581301  0.30855798  1
  F  F22  1  0.89418699  0.75000000  0.55855798  1
  F  F23  1  0.60581301  0.25000000  0.05855798  1
  F  F24  1  0.50000000  0.14418699  0.19144202  1
  F  F25  1  0.00000000  0.85581301  0.69144202  1
  F  F26  1  0.10581301  0.25000000  0.44144202  1
  F  F27  1  0.39418699  0.75000000  0.94144202  1
  F  F28  1  0.00000000  0.14418699  0.30855798  1
  F  F29  1  0.50000000  0.85581301  0.80855798  1
  F  F30  1  0.39418699  0.25000000  0.05855798  1
  F  F31  1  0.10581301  0.75000000  0.55855798  1
  F  F32  1  0.00000000  0.97874034  0.65307225  1
  F  F33  1  0.50000000  0.02125966  0.15307225  1
  F  F34  1  0.27125966  0.75000000  0.90307225  1
  F  F35  1  0.22874034  0.25000000  0.40307225  1
  F  F36  1  0.50000000  0.97874034  0.84692775  1
  F  F37  1  0.00000000  0.02125966  0.34692775  1
  F  F38  1  0.22874034  0.75000000  0.59692775  1
  F  F39  1  0.27125966  0.25000000  0.09692775  1
  F  F40  1  0.50000000  0.47874034  0.15307225  1
  F  F41  1  0.00000000  0.52125966  0.65307225  1
  F  F42  1  0.77125966  0.25000000  0.40307225  1
  F  F43  1  0.72874034  0.75000000  0.90307225  1
  F  F44  1  0.00000000  0.47874034  0.34692775  1
  F  F45  1  0.50000000  0.52125966  0.84692775  1
  F  F46  1  0.72874034  0.25000000  0.09692775  1
  F  F47  1  0.77125966  0.75000000  0.59692775  1
  Li  Li48  1  0.00000000  0.25000000  0.08937926  1
  Li  Li49  1  0.00000000  0.75000000  0.33937926  1
  Li  Li50  1  0.50000000  0.25000000  0.41062074  1
  Li  Li51  1  0.50000000  0.75000000  0.16062074  1
  Li  Li52  1  0.50000000  0.75000000  0.58937926  1
  Li  Li53  1  0.50000000  0.25000000  0.83937926  1
  Li  Li54  1  0.00000000  0.75000000  0.91062074  1
  Li  Li55  1  0.00000000  0.25000000  0.66062074  1
  Si  Si56  1  0.36365721  0.61365721  0.87500000  1
  Si  Si57  1  0.13634279  0.38634279  0.37500000  1
  Si  Si58  1  -0.36365721  1.11365721  0.12500000  1
  Si  Si59  1  0.86365721  -0.11365721  0.62500000  1
  Si  Si60  1  -0.36365721  0.38634279  0.12500000  1
  Si  Si61  1  0.86365721  0.61365721  0.62500000  1
  Si  Si62  1  0.36365721  -0.11365721  0.87500000  1
  Si  Si63  1  0.13634279  1.11365721  0.37500000  1
  Si  Si64  1  0.86365721  1.11365721  1.37500000  1
  Si  Si65  1  0.63634279  0.88634279  0.87500000  1
  Si  Si66  1  0.13634279  1.61365721  0.62500000  1
  Si  Si67  1  1.36365721  0.38634279  1.12500000  1
  Si  Si68  1  0.13634279  0.88634279  0.62500000  1
  Si  Si69  1  1.36365721  1.11365721  1.12500000  1
  Si  Si70  1  0.86365721  0.38634279  1.37500000  1
  Si  Si71  1  0.63634279  1.61365721  0.87500000  1
  Te  Te72  1  0.00000000  0.75000000  0.12500000  1
  Te  Te73  1  0.50000000  0.75000000  0.37500000  1
  Te  Te74  1  0.50000000  0.25000000  0.62500000  1
  Te  Te75  1  0.00000000  0.25000000  0.87500000  1
  Te  Te76  1  0.00000000  0.00000000  0.00000000  1
  Te  Te77  1  0.50000000  0.00000000  0.50000000  1
  Te  Te78  1  0.25000000  0.75000000  0.25000000  1
  Te  Te79  1  0.25000000  0.25000000  0.75000000  1
  Te  Te80  1  0.50000000  0.50000000  0.50000000  1
  Te  Te81  1  0.00000000  0.50000000  0.00000000  1
  Te  Te82  1  0.75000000  0.25000000  0.75000000  1
  Te  Te83  1  0.75000000  0.75000000  0.25000000  1
