# generated using pymatgen
data_Li2Si4Te3F12
_symmetry_space_group_name_H-M   'P 1'
_cell_length_a   9.46195766
_cell_length_b   9.46195766
_cell_length_c   12.13056984
_cell_angle_alpha   90.00000000
_cell_angle_beta   90.00000000
_cell_angle_gamma   90.00000000
_symmetry_Int_Tables_number   1
_chemical_formula_structural   Li2Si4Te3F12
_chemical_formula_sum   'Li8 Si16 Te12 F48'
_cell_volume   1086.03345418
_cell_formula_units_Z   4
loop_
 _symmetry_equiv_pos_site_id
 _symmetry_equiv_pos_as_xyz
  1  'x, y, z'
loop_
 _atom_site_type_symbol
 _atom_site_label
 _atom_site_symmetry_multiplicity
 _atom_site_fract_x
 _atom_site_fract_y
 _atom_site_fract_z
 _atom_site_occupancy
  F  F0  1  0.06206775  0.93506868  0.70470044  1
  F  F1  1  0.43793225  -0.93506868  1.20470044  1
  F  F2  1  -0.68506868  0.81206775  0.95470044  1
  F  F3  1  1.18506868  0.18793225  1.45470044  1
  F  F4  1  0.43793225  0.93506868  -0.20470044  1
  F  F5  1  0.06206775  -0.93506868  -0.70470044  1
  F  F6  1  1.18506868  0.81206775  -0.45470044  1
  F  F7  1  -0.68506868  0.18793225  0.04529956  1
  F  F8  1  -0.06206775  -0.93506868  -0.70470044  1
  F  F9  1  0.56206775  0.93506868  -0.20470044  1
  F  F10  1  1.68506868  0.18793225  0.04529956  1
  F  F11  1  -0.18506868  0.81206775  -0.45470044  1
  F  F12  1  0.56206775  -0.93506868  1.20470044  1
  F  F13  1  -0.06206775  0.93506868  0.70470044  1
  F  F14  1  -0.18506868  0.18793225  1.45470044  1
  F  F15  1  1.68506868  0.81206775  0.95470044  1
  F  F16  1  0.56206775  1.43506868  1.20470044  1
  F  F17  1  0.93793225  -0.43506868  1.70470044  1
  F  F18  1  -0.18506868  1.31206775  1.45470044  1
  F  F19  1  1.68506868  0.68793225  1.95470044  1
  F  F20  1  0.93793225  1.43506868  0.29529956  1
  F  F21  1  0.56206775  -0.43506868  -0.20470044  1
  F  F22  1  1.68506868  1.31206775  0.04529956  1
  F  F23  1  -0.18506868  0.68793225  0.54529956  1
  F  F24  1  0.43793225  -0.43506868  -0.20470044  1
  F  F25  1  1.06206775  1.43506868  0.29529956  1
  F  F26  1  2.18506868  0.68793225  0.54529956  1
  F  F27  1  0.31493132  1.31206775  0.04529956  1
  F  F28  1  1.06206775  -0.43506868  1.70470044  1
  F  F29  1  0.43793225  1.43506868  1.20470044  1
  F  F30  1  0.31493132  0.68793225  1.95470044  1
  F  F31  1  2.18506868  1.31206775  1.45470044  1
  F  F32  1  0.00000000  0.95646429  0.65373839  1
  F  F33  1  0.50000000  0.04353571  0.15373839  1
  F  F34  1  0.29353571  0.75000000  0.90373839  1
  F  F35  1  0.20646429  0.25000000  0.40373839  1
  F  F36  1  0.50000000  0.95646429  0.84626161  1
  F  F37  1  0.00000000  0.04353571  0.34626161  1
  F  F38  1  0.20646429  0.75000000  0.59626161  1
  F  F39  1  0.29353571  0.25000000  0.09626161  1
  F  F40  1  0.50000000  0.45646429  0.15373839  1
  F  F41  1  0.00000000  0.54353571  0.65373839  1
  F  F42  1  0.79353571  0.25000000  0.40373839  1
  F  F43  1  0.70646429  0.75000000  0.90373839  1
  F  F44  1  0.00000000  0.45646429  0.34626161  1
  F  F45  1  0.50000000  0.54353571  0.84626161  1
  F  F46  1  0.70646429  0.25000000  0.09626161  1
  F  F47  1  0.79353571  0.75000000  0.59626161  1
  Li  Li48  1  0.00000000  0.00000000  0.00000000  1
  Li  Li49  1  0.50000000  0.00000000  0.50000000  1
  Li  Li50  1  0.25000000  0.75000000  0.25000000  1
  Li  Li51  1  0.25000000  0.25000000  0.75000000  1
  Li  Li52  1  0.50000000  0.50000000  0.50000000  1
  Li  Li53  1  0.00000000  0.50000000  0.00000000  1
  Li  Li54  1  0.75000000  0.25000000  0.75000000  1
  Li  Li55  1  0.75000000  0.75000000  0.25000000  1
  Si  Si56  1  0.00000000  0.25000000  0.54049873  1
  Si  Si57  1  0.00000000  0.75000000  0.79049873  1
  Si  Si58  1  0.50000000  0.25000000  0.95950127  1
  Si  Si59  1  0.50000000  0.75000000  0.70950127  1
  Si  Si60  1  0.50000000  0.75000000  0.04049873  1
  Si  Si61  1  0.50000000  0.25000000  0.29049873  1
  Si  Si62  1  0.00000000  0.75000000  0.45950127  1
  Si  Si63  1  0.00000000  0.25000000  0.20950127  1
  Si  Si64  1  0.00000000  0.25000000  0.01683545  1
  Si  Si65  1  0.00000000  0.75000000  0.26683545  1
  Si  Si66  1  0.50000000  0.25000000  0.48316455  1
  Si  Si67  1  0.50000000  0.75000000  0.23316455  1
  Si  Si68  1  0.50000000  0.75000000  0.51683545  1
  Si  Si69  1  0.50000000  0.25000000  0.76683545  1
  Si  Si70  1  0.00000000  0.75000000  0.98316455  1
  Si  Si71  1  0.00000000  0.25000000  0.73316455  1
  Te  Te72  1  0.00000000  0.00000000  0.50000000  1
  Te  Te73  1  0.50000000  0.00000000  0.00000000  1
  Te  Te74  1  0.25000000  0.75000000  0.75000000  1
  Te  Te75  1  0.25000000  0.25000000  0.25000000  1
  Te  Te76  1  0.50000000  0.50000000  0.00000000  1
  Te  Te77  1  0.00000000  0.50000000  0.50000000  1
  Te  Te78  1  0.75000000  0.25000000  0.25000000  1
  Te  Te79  1  0.75000000  0.75000000  0.75000000  1
  Te  Te80  1  0.00000000  0.75000000  0.12500000  1
  Te  Te81  1  0.50000000  0.75000000  0.37500000  1
  Te  Te82  1  0.50000000  0.25000000  0.62500000  1
  Te  Te83  1  0.00000000  0.25000000  0.87500000  1
