# generated using pymatgen
data_LiF
_symmetry_space_group_name_H-M   'P 1'
_cell_length_a   7.00315968
_cell_length_b   7.00315968
_cell_length_c   18.75923800
_cell_angle_alpha   90.00000000
_cell_angle_beta   90.00000000
_cell_angle_gamma   120.00000000
_symmetry_Int_Tables_number   1
_chemical_formula_structural   LiF
_chemical_formula_sum   'Li32 F32'
_cell_volume   796.77166826
_cell_formula_units_Z   32
loop_
 _symmetry_equiv_pos_site_id
 _symmetry_equiv_pos_as_xyz
  1  'x, y, z'
loop_
 _atom_site_type_symbol
 _atom_site_label
 _atom_site_symmetry_multiplicity
 _atom_site_fract_x
 _atom_site_fract_y
 _atom_site_fract_z
 _atom_site_occupancy
  F  F0  1  0.06176423  0.93823577  0.50000000  1
  F  F1  1  0.06176423  0.12352847  0.50000000  1
  F  F2  1  0.87647153  0.93823577  0.50000000  1
  F  F3  1  0.11585868  0.88414132  0.50000000  1
  F  F4  1  0.11585868  0.23171735  0.50000000  1
  F  F5  1  0.76828265  0.88414132  0.50000000  1
  F  F6  1  0.85084170  0.44532592  0.62168654  1
  F  F7  1  0.55467408  0.40551577  0.62168654  1
  F  F8  1  0.59448423  0.14915830  0.62168654  1
  F  F9  1  0.55467408  0.14915830  0.37831346  1
  F  F10  1  0.59448423  0.44532592  0.37831346  1
  F  F11  1  0.85084170  0.40551577  0.37831346  1
  F  F12  1  0.98784187  0.73516514  0.85159000  1
  F  F13  1  0.26483486  0.25267673  0.85159000  1
  F  F14  1  0.74732327  0.01215813  0.85159000  1
  F  F15  1  0.26483486  0.01215813  0.14841000  1
  F  F16  1  0.74732327  0.73516514  0.14841000  1
  F  F17  1  0.98784187  0.25267673  0.14841000  1
  F  F18  1  0.98247939  0.22257280  0.87638349  1
  F  F19  1  0.77742720  0.75990658  0.87638349  1
  F  F20  1  0.24009342  0.01752061  0.87638349  1
  F  F21  1  0.77742720  0.01752061  0.12361651  1
  F  F22  1  0.24009342  0.22257280  0.12361651  1
  F  F23  1  0.98247939  0.75990658  0.12361651  1
  F  F24  1  0.91019061  0.86594349  0.57236059  1
  F  F25  1  0.13405651  0.04424712  0.57236059  1
  F  F26  1  0.95575288  0.08980939  0.57236059  1
  F  F27  1  0.13405651  0.08980939  0.42763941  1
  F  F28  1  0.95575288  0.86594349  0.42763941  1
  F  F29  1  0.91019061  0.04424712  0.42763941  1
  F  F30  1  0.00000000  0.00000000  0.93591987  1
  F  F31  1  0.00000000  0.00000000  0.06408013  1
  Li  Li32  1  0.31316537  0.53614593  0.90384356  1
  Li  Li33  1  -0.53614593  -0.22298057  0.90384356  1
  Li  Li34  1  0.22298057  -0.31316537  0.90384356  1
  Li  Li35  1  -0.53614593  -0.31316537  -0.90384356  1
  Li  Li36  1  0.22298057  0.53614593  -0.90384356  1
  Li  Li37  1  0.31316537  -0.22298057  -0.90384356  1
  Li  Li38  1  0.66666667  0.33333333  0.15478583  1
  Li  Li39  1  0.66666667  0.33333333  0.84521417  1
  Li  Li40  1  0.00000000  0.00000000  0.00000000  1
  Li  Li41  1  0.31080636  0.39516727  0.96720298  1
  Li  Li42  1  0.60483273  0.91563909  0.96720298  1
  Li  Li43  1  0.08436091  0.68919364  0.96720298  1
  Li  Li44  1  0.60483273  0.68919364  0.03279702  1
  Li  Li45  1  0.08436091  0.39516727  0.03279702  1
  Li  Li46  1  0.31080636  0.91563909  0.03279702  1
  Li  Li47  1  0.33333333  0.66666667  0.42615359  1
  Li  Li48  1  0.33333333  0.66666667  0.57384641  1
  Li  Li49  1  0.66666667  0.33333333  0.00000000  1
  Li  Li50  1  0.91787763  0.13982810  0.33500591  1
  Li  Li51  1  0.86017190  0.77804953  0.33500591  1
  Li  Li52  1  0.22195047  0.08212237  0.33500591  1
  Li  Li53  1  0.86017190  0.08212237  0.66499409  1
  Li  Li54  1  0.22195047  0.13982810  0.66499409  1
  Li  Li55  1  0.91787763  0.77804953  0.66499409  1
  Li  Li56  1  0.28682973  0.97096771  0.64828722  1
  Li  Li57  1  0.02903229  0.31586202  0.64828722  1
  Li  Li58  1  0.68413798  0.71317027  0.64828722  1
  Li  Li59  1  0.02903229  0.71317027  0.35171278  1
  Li  Li60  1  0.68413798  0.97096771  0.35171278  1
  Li  Li61  1  0.28682973  0.31586202  0.35171278  1
  Li  Li62  1  0.66666667  0.33333333  0.30134711  1
  Li  Li63  1  0.66666667  0.33333333  0.69865289  1
