# generated using pymatgen
data_LiF
_symmetry_space_group_name_H-M   'P 1'
_cell_length_a   11.11511468
_cell_length_b   11.11511468
_cell_length_c   6.62728660
_cell_angle_alpha   90.00000000
_cell_angle_beta   90.00000000
_cell_angle_gamma   120.00000000
_symmetry_Int_Tables_number   1
_chemical_formula_structural   LiF
_chemical_formula_sum   'Li38 F38'
_cell_volume   709.07843778
_cell_formula_units_Z   38
loop_
 _symmetry_equiv_pos_site_id
 _symmetry_equiv_pos_as_xyz
  1  'x, y, z'
loop_
 _atom_site_type_symbol
 _atom_site_label
 _atom_site_symmetry_multiplicity
 _atom_site_fract_x
 _atom_site_fract_y
 _atom_site_fract_z
 _atom_site_occupancy
  F  F0  1  0.35738961  0.54806437  0.18153420  1
  F  F1  1  0.45193563  0.80932524  0.18153420  1
  F  F2  1  0.19067476  0.64261039  0.18153420  1
  F  F3  1  0.45193563  0.64261039  0.81846580  1
  F  F4  1  0.19067476  0.54806437  0.81846580  1
  F  F5  1  0.35738961  0.80932524  0.81846580  1
  F  F6  1  0.40584412  0.86575347  0.46320242  1
  F  F7  1  0.13424653  0.54009065  0.46320242  1
  F  F8  1  0.45990935  0.59415588  0.46320242  1
  F  F9  1  0.13424653  0.59415588  0.53679758  1
  F  F10  1  0.45990935  0.86575347  0.53679758  1
  F  F11  1  0.40584412  0.54009065  0.53679758  1
  F  F12  1  0.66666667  0.33333333  0.00000000  1
  F  F13  1  0.64970849  0.14847394  0.44587586  1
  F  F14  1  0.85152606  0.50123455  0.44587586  1
  F  F15  1  0.49876545  0.35029151  0.44587586  1
  F  F16  1  0.85152606  0.35029151  0.55412414  1
  F  F17  1  0.49876545  0.14847394  0.55412414  1
  F  F18  1  0.64970849  0.50123455  0.55412414  1
  F  F19  1  0.33333333  0.66666667  0.33842197  1
  F  F20  1  0.33333333  0.66666667  0.66157803  1
  F  F21  1  0.70862045  0.62674287  0.52630604  1
  F  F22  1  0.37325713  0.08187758  0.52630604  1
  F  F23  1  0.91812242  0.29137955  0.52630604  1
  F  F24  1  0.37325713  0.29137955  0.47369396  1
  F  F25  1  0.91812242  0.62674287  0.47369396  1
  F  F26  1  0.70862045  0.08187758  0.47369396  1
  F  F27  1  0.43290586  0.57840931  0.15181713  1
  F  F28  1  0.42159069  0.85449655  0.15181713  1
  F  F29  1  0.14550345  0.56709414  0.15181713  1
  F  F30  1  0.42159069  0.56709414  0.84818287  1
  F  F31  1  0.14550345  0.57840931  0.84818287  1
  F  F32  1  0.43290586  0.85449655  0.84818287  1
  F  F33  1  0.90358975  0.09641025  0.00000000  1
  F  F34  1  0.90358975  0.80717950  0.00000000  1
  F  F35  1  0.19282050  0.09641025  0.00000000  1
  F  F36  1  0.00000000  0.00000000  0.84234826  1
  F  F37  1  0.00000000  0.00000000  0.15765174  1
  Li  Li38  1  0.33333333  0.66666667  0.50000000  1
  Li  Li39  1  0.17686845  0.38565045  0.89630928  1
  Li  Li40  1  -0.38565045  -0.20878201  0.89630928  1
  Li  Li41  1  0.20878201  -0.17686845  0.89630928  1
  Li  Li42  1  -0.38565045  -0.17686845  -0.89630928  1
  Li  Li43  1  0.20878201  0.38565045  -0.89630928  1
  Li  Li44  1  0.17686845  -0.20878201  -0.89630928  1
  Li  Li45  1  0.56220515  0.43779485  0.50000000  1
  Li  Li46  1  0.56220515  0.12441031  0.50000000  1
  Li  Li47  1  0.87558969  0.43779485  0.50000000  1
  Li  Li48  1  0.08415060  0.11273601  0.15186345  1
  Li  Li49  1  0.88726399  0.97141459  0.15186345  1
  Li  Li50  1  0.02858541  0.91584940  0.15186345  1
  Li  Li51  1  0.88726399  0.91584940  0.84813655  1
  Li  Li52  1  0.02858541  0.11273601  0.84813655  1
  Li  Li53  1  0.08415060  0.97141459  0.84813655  1
  Li  Li54  1  0.43446540  0.41924682  0.55975716  1
  Li  Li55  1  0.58075318  0.01521858  0.55975716  1
  Li  Li56  1  0.98478142  0.56553460  0.55975716  1
  Li  Li57  1  0.58075318  0.56553460  0.44024284  1
  Li  Li58  1  0.98478142  0.41924682  0.44024284  1
  Li  Li59  1  0.43446540  0.01521858  0.44024284  1
  Li  Li60  1  0.04644946  0.35768316  0.85386429  1
  Li  Li61  1  0.64231684  0.68876630  0.85386429  1
  Li  Li62  1  0.31123370  0.95355054  0.85386429  1
  Li  Li63  1  0.64231684  0.95355054  0.14613571  1
  Li  Li64  1  0.31123370  0.35768316  0.14613571  1
  Li  Li65  1  0.04644946  0.68876630  0.14613571  1
  Li  Li66  1  0.72907159  0.27092841  0.00000000  1
  Li  Li67  1  0.72907159  0.45814317  0.00000000  1
  Li  Li68  1  0.54185683  0.27092841  0.00000000  1
  Li  Li69  1  0.13950905  0.86049095  0.50000000  1
  Li  Li70  1  0.13950905  0.27901810  0.50000000  1
  Li  Li71  1  0.72098190  0.86049095  0.50000000  1
  Li  Li72  1  0.00000000  0.00000000  0.50000000  1
  Li  Li73  1  0.87819334  0.12180666  0.50000000  1
  Li  Li74  1  0.87819334  0.75638669  0.50000000  1
  Li  Li75  1  0.24361331  0.12180666  0.50000000  1
