# generated using pymatgen
data_LiCaF3
_symmetry_space_group_name_H-M   'P 1'
_cell_length_a   18.81080442
_cell_length_b   18.81080442
_cell_length_c   5.03309761
_cell_angle_alpha   90.00000000
_cell_angle_beta   90.00000000
_cell_angle_gamma   120.00000000
_symmetry_Int_Tables_number   1
_chemical_formula_structural   LiCaF3
_chemical_formula_sum   'Li18 Ca18 F54'
_cell_volume   1542.34212640
_cell_formula_units_Z   18
loop_
 _symmetry_equiv_pos_site_id
 _symmetry_equiv_pos_as_xyz
  1  'x, y, z'
loop_
 _atom_site_type_symbol
 _atom_site_label
 _atom_site_symmetry_multiplicity
 _atom_site_fract_x
 _atom_site_fract_y
 _atom_site_fract_z
 _atom_site_occupancy
  Ca  Ca0  1  0.89309662  0.18128511  0.63048650  1
  Ca  Ca1  1  -0.18128511  0.71181151  0.63048650  1
  Ca  Ca2  1  -0.71181151  -0.89309662  0.63048650  1
  Ca  Ca3  1  -0.18128511  -0.89309662  -0.63048650  1
  Ca  Ca4  1  -0.71181151  0.18128511  -0.63048650  1
  Ca  Ca5  1  0.89309662  0.71181151  -0.63048650  1
  Ca  Ca6  1  0.17383056  0.16851203  0.44209263  1
  Ca  Ca7  1  0.83148797  0.00531853  0.44209263  1
  Ca  Ca8  1  0.99468147  0.82616944  0.44209263  1
  Ca  Ca9  1  0.83148797  0.82616944  0.55790737  1
  Ca  Ca10  1  0.99468147  0.16851203  0.55790737  1
  Ca  Ca11  1  0.17383056  0.00531853  0.55790737  1
  Ca  Ca12  1  0.63781950  0.99129011  0.05826244  1
  Ca  Ca13  1  0.00870989  0.64652940  0.05826244  1
  Ca  Ca14  1  0.35347060  0.36218050  0.05826244  1
  Ca  Ca15  1  0.00870989  0.36218050  0.94173756  1
  Ca  Ca16  1  0.35347060  0.99129011  0.94173756  1
  Ca  Ca17  1  0.63781950  0.64652940  0.94173756  1
  F  F18  1  0.21890837  0.88512533  0.59651220  1
  F  F19  1  0.11487467  0.33378304  0.59651220  1
  F  F20  1  0.66621696  0.78109163  0.59651220  1
  F  F21  1  0.11487467  0.78109163  0.40348780  1
  F  F22  1  0.66621696  0.88512533  0.40348780  1
  F  F23  1  0.21890837  0.33378304  0.40348780  1
  F  F24  1  0.12739543  0.26579402  0.22791350  1
  F  F25  1  0.73420598  0.86160141  0.22791350  1
  F  F26  1  0.13839859  0.87260457  0.22791350  1
  F  F27  1  0.73420598  0.87260457  0.77208650  1
  F  F28  1  0.13839859  0.26579402  0.77208650  1
  F  F29  1  0.12739543  0.86160141  0.77208650  1
  F  F30  1  0.21345807  0.90224420  0.39991874  1
  F  F31  1  0.09775580  0.31121387  0.39991874  1
  F  F32  1  0.68878613  0.78654193  0.39991874  1
  F  F33  1  0.09775580  0.78654193  0.60008126  1
  F  F34  1  0.68878613  0.90224420  0.60008126  1
  F  F35  1  0.21345807  0.31121387  0.60008126  1
  F  F36  1  0.04797977  0.57594930  0.10693564  1
  F  F37  1  0.42405070  0.47203047  0.10693564  1
  F  F38  1  0.52796953  0.95202023  0.10693564  1
  F  F39  1  0.42405070  0.95202023  0.89306436  1
  F  F40  1  0.52796953  0.57594930  0.89306436  1
  F  F41  1  0.04797977  0.47203047  0.89306436  1
  F  F42  1  0.00000000  0.00000000  0.36140184  1
  F  F43  1  0.00000000  0.00000000  0.63859816  1
  F  F44  1  0.33333333  0.66666667  0.81050057  1
  F  F45  1  0.33333333  0.66666667  0.18949943  1
  F  F46  1  0.33333333  0.66666667  0.42796555  1
  F  F47  1  0.33333333  0.66666667  0.57203445  1
  F  F48  1  0.95385983  0.04614017  -0.00000000  1
  F  F49  1  0.95385983  0.90771965  0.00000000  1
  F  F50  1  0.09228035  0.04614017  -0.00000000  1
  F  F51  1  0.83854998  0.21814747  0.56349335  1
  F  F52  1  0.78185253  0.62040251  0.56349335  1
  F  F53  1  0.37959749  0.16145002  0.56349335  1
  F  F54  1  0.78185253  0.16145002  0.43650665  1
  F  F55  1  0.37959749  0.21814747  0.43650665  1
  F  F56  1  0.83854998  0.62040251  0.43650665  1
  F  F57  1  0.35352884  0.43135922  0.29971966  1
  F  F58  1  0.56864078  0.92216962  0.29971966  1
  F  F59  1  0.07783038  0.64647116  0.29971966  1
  F  F60  1  0.56864078  0.64647116  0.70028034  1
  F  F61  1  0.07783038  0.43135922  0.70028034  1
  F  F62  1  0.35352884  0.92216962  0.70028034  1
  F  F63  1  0.73686677  0.59695846  0.02090175  1
  F  F64  1  0.40304154  0.13990832  0.02090175  1
  F  F65  1  0.86009168  0.26313323  0.02090175  1
  F  F66  1  0.40304154  0.26313323  0.97909825  1
  F  F67  1  0.86009168  0.59695846  0.97909825  1
  F  F68  1  0.73686677  0.13990832  0.97909825  1
  F  F69  1  0.33333333  0.66666667  -0.00000000  1
  F  F70  1  0.00000000  0.00000000  0.50000000  1
  F  F71  1  0.66666667  0.33333333  0.50000000  1
  Li  Li72  1  0.66666667  0.33333333  -0.00000000  1
  Li  Li73  1  0.65320221  0.78083071  0.23376223  1
  Li  Li74  1  0.21916929  0.87237150  0.23376223  1
  Li  Li75  1  0.12762850  0.34679779  0.23376223  1
  Li  Li76  1  0.21916929  0.34679779  0.76623777  1
  Li  Li77  1  0.12762850  0.78083071  0.76623777  1
  Li  Li78  1  0.65320221  0.87237150  0.76623777  1
  Li  Li79  1  0.73336557  0.59848639  0.25497308  1
  Li  Li80  1  0.40151361  0.13487918  0.25497308  1
  Li  Li81  1  0.86512082  0.26663443  0.25497308  1
  Li  Li82  1  0.40151361  0.26663443  0.74502692  1
  Li  Li83  1  0.86512082  0.59848639  0.74502692  1
  Li  Li84  1  0.73336557  0.13487918  0.74502692  1
  Li  Li85  1  0.72226814  0.27773186  0.00000000  1
  Li  Li86  1  0.72226814  0.44453629  0.00000000  1
  Li  Li87  1  0.55546371  0.27773186  0.00000000  1
  Li  Li88  1  0.66666667  0.33333333  0.68511994  1
  Li  Li89  1  0.66666667  0.33333333  0.31488006  1
