# generated using pymatgen
data_Li4TeF2
_symmetry_space_group_name_H-M   'P 1'
_cell_length_a   13.54924203
_cell_length_b   13.54924203
_cell_length_c   21.57263164
_cell_angle_alpha   90.00000000
_cell_angle_beta   90.00000000
_cell_angle_gamma   120.00000000
_symmetry_Int_Tables_number   1
_chemical_formula_structural   Li4TeF2
_chemical_formula_sum   'Li96 Te24 F48'
_cell_volume   3429.76023275
_cell_formula_units_Z   24
loop_
 _symmetry_equiv_pos_site_id
 _symmetry_equiv_pos_as_xyz
  1  'x, y, z'
loop_
 _atom_site_type_symbol
 _atom_site_label
 _atom_site_symmetry_multiplicity
 _atom_site_fract_x
 _atom_site_fract_y
 _atom_site_fract_z
 _atom_site_occupancy
  F  F0  1  0.20182318  0.90958470  0.65459174  1
  F  F1  1  -0.90958470  -0.70776152  0.65459174  1
  F  F2  1  0.70776152  -0.20182318  0.65459174  1
  F  F3  1  0.90958470  0.20182318  -0.15459174  1
  F  F4  1  -0.70776152  -0.90958470  -0.15459174  1
  F  F5  1  -0.20182318  0.70776152  -0.15459174  1
  F  F6  1  -0.20182318  -0.90958470  -0.65459174  1
  F  F7  1  0.90958470  0.70776152  -0.65459174  1
  F  F8  1  -0.70776152  0.20182318  -0.65459174  1
  F  F9  1  -0.90958470  -0.20182318  1.15459174  1
  F  F10  1  0.70776152  0.90958470  1.15459174  1
  F  F11  1  0.20182318  -0.70776152  1.15459174  1
  F  F12  1  0.86848985  1.24291804  0.98792507  1
  F  F13  1  -0.24291804  -0.37442819  0.98792507  1
  F  F14  1  1.37442819  0.13151015  0.98792507  1
  F  F15  1  1.57625137  0.53515652  0.17874160  1
  F  F16  1  -0.04109485  -0.57625137  0.17874160  1
  F  F17  1  0.46484348  1.04109485  0.17874160  1
  F  F18  1  0.46484348  -0.57625137  -0.32125840  1
  F  F19  1  1.57625137  1.04109485  -0.32125840  1
  F  F20  1  -0.04109485  0.53515652  -0.32125840  1
  F  F21  1  -0.24291804  0.13151015  1.48792507  1
  F  F22  1  1.37442819  1.24291804  1.48792507  1
  F  F23  1  0.86848985  -0.37442819  1.48792507  1
  F  F24  1  0.53515652  1.57625137  1.32125840  1
  F  F25  1  -0.57625137  -0.04109485  1.32125840  1
  F  F26  1  1.04109485  0.46484348  1.32125840  1
  F  F27  1  1.24291804  0.86848985  0.51207493  1
  F  F28  1  -0.37442819  -0.24291804  0.51207493  1
  F  F29  1  0.13151015  1.37442819  0.51207493  1
  F  F30  1  0.13151015  -0.24291804  0.01207493  1
  F  F31  1  1.24291804  1.37442819  0.01207493  1
  F  F32  1  -0.37442819  0.86848985  0.01207493  1
  F  F33  1  -0.57625137  0.46484348  1.82125840  1
  F  F34  1  1.04109485  1.57625137  1.82125840  1
  F  F35  1  0.53515652  -0.04109485  1.82125840  1
  F  F36  1  0.00000000  0.00000000  0.09543035  1
  F  F37  1  0.00000000  0.00000000  0.40456965  1
  F  F38  1  0.00000000  0.00000000  0.90456965  1
  F  F39  1  0.00000000  0.00000000  0.59543035  1
  F  F40  1  0.66666667  0.33333333  0.42876368  1
  F  F41  1  0.66666667  0.33333333  0.73790298  1
  F  F42  1  0.66666667  0.33333333  0.23790298  1
  F  F43  1  0.66666667  0.33333333  0.92876368  1
  F  F44  1  0.33333333  0.66666667  0.76209702  1
  F  F45  1  0.33333333  0.66666667  0.07123632  1
  F  F46  1  0.33333333  0.66666667  0.57123632  1
  F  F47  1  0.33333333  0.66666667  0.26209702  1
  Li  Li48  1  0.00000000  0.00000000  0.00000000  1
  Li  Li49  1  0.00000000  0.00000000  0.50000000  1
  Li  Li50  1  0.66666667  0.33333333  0.33333333  1
  Li  Li51  1  0.66666667  0.33333333  0.83333333  1
  Li  Li52  1  0.33333333  0.66666667  0.66666667  1
  Li  Li53  1  0.33333333  0.66666667  0.16666667  1
  Li  Li54  1  0.62248628  0.46158439  0.67621107  1
  Li  Li55  1  0.53841561  0.16090190  0.67621107  1
  Li  Li56  1  0.83909810  0.37751372  0.67621107  1
  Li  Li57  1  0.46158439  0.62248628  0.82378893  1
  Li  Li58  1  0.16090190  0.53841561  0.82378893  1
  Li  Li59  1  0.37751372  0.83909810  0.82378893  1
  Li  Li60  1  0.37751372  0.53841561  0.32378893  1
  Li  Li61  1  0.46158439  0.83909810  0.32378893  1
  Li  Li62  1  0.16090190  0.62248628  0.32378893  1
  Li  Li63  1  0.53841561  0.37751372  0.17621107  1
  Li  Li64  1  0.83909810  0.46158439  0.17621107  1
  Li  Li65  1  0.62248628  0.16090190  0.17621107  1
  Li  Li66  1  0.28915295  0.79491772  0.00954440  1
  Li  Li67  1  0.20508228  0.49423523  0.00954440  1
  Li  Li68  1  0.50576477  0.71084705  0.00954440  1
  Li  Li69  1  0.12825105  0.95581962  0.15712227  1
  Li  Li70  1  0.82756857  0.87174895  0.15712227  1
  Li  Li71  1  0.04418038  0.17243143  0.15712227  1
  Li  Li72  1  0.04418038  0.87174895  0.65712227  1
  Li  Li73  1  0.12825105  0.17243143  0.65712227  1
  Li  Li74  1  0.82756857  0.95581962  0.65712227  1
  Li  Li75  1  0.20508228  0.71084705  0.50954440  1
  Li  Li76  1  0.50576477  0.79491772  0.50954440  1
  Li  Li77  1  0.28915295  0.49423523  0.50954440  1
  Li  Li78  1  0.95581962  0.12825105  0.34287773  1
  Li  Li79  1  0.87174895  0.82756857  0.34287773  1
  Li  Li80  1  0.17243143  0.04418038  0.34287773  1
  Li  Li81  1  0.79491772  0.28915295  0.49045560  1
  Li  Li82  1  0.49423523  0.20508228  0.49045560  1
  Li  Li83  1  0.71084705  0.50576477  0.49045560  1
  Li  Li84  1  0.71084705  0.20508228  0.99045560  1
  Li  Li85  1  0.79491772  0.50576477  0.99045560  1
  Li  Li86  1  0.49423523  0.28915295  0.99045560  1
  Li  Li87  1  0.87174895  0.04418038  0.84287773  1
  Li  Li88  1  0.17243143  0.12825105  0.84287773  1
  Li  Li89  1  0.95581962  0.82756857  0.84287773  1
  Li  Li90  1  0.96732244  0.60194525  0.21363219  1
  Li  Li91  1  0.39805475  0.36537719  0.21363219  1
  Li  Li92  1  0.63462281  0.03267756  0.21363219  1
  Li  Li93  1  0.60194525  0.96732244  0.28636781  1
  Li  Li94  1  0.36537719  0.39805475  0.28636781  1
  Li  Li95  1  0.03267756  0.63462281  0.28636781  1
  Li  Li96  1  0.03267756  0.39805475  0.78636781  1
  Li  Li97  1  0.60194525  0.63462281  0.78636781  1
  Li  Li98  1  0.36537719  0.96732244  0.78636781  1
  Li  Li99  1  0.39805475  0.03267756  0.71363219  1
  Li  Li100  1  0.63462281  0.60194525  0.71363219  1
  Li  Li101  1  0.96732244  0.36537719  0.71363219  1
  Li  Li102  1  0.63398910  0.93527858  0.54696553  1
  Li  Li103  1  0.06472142  0.69871052  0.54696553  1
  Li  Li104  1  0.30128948  0.36601090  0.54696553  1
  Li  Li105  1  0.26861192  0.30065577  0.61970114  1
  Li  Li106  1  0.03204385  0.73138808  0.61970114  1
  Li  Li107  1  0.69934423  0.96795615  0.61970114  1
  Li  Li108  1  0.69934423  0.73138808  0.11970114  1
  Li  Li109  1  0.26861192  0.96795615  0.11970114  1
  Li  Li110  1  0.03204385  0.30065577  0.11970114  1
  Li  Li111  1  0.06472142  0.36601090  0.04696553  1
  Li  Li112  1  0.30128948  0.93527858  0.04696553  1
  Li  Li113  1  0.63398910  0.69871052  0.04696553  1
  Li  Li114  1  0.30065577  0.26861192  0.88029886  1
  Li  Li115  1  0.73138808  0.03204385  0.88029886  1
  Li  Li116  1  0.96795615  0.69934423  0.88029886  1
  Li  Li117  1  0.93527858  0.63398910  0.95303447  1
  Li  Li118  1  0.69871052  0.06472142  0.95303447  1
  Li  Li119  1  0.36601090  0.30128948  0.95303447  1
  Li  Li120  1  0.36601090  0.06472142  0.45303447  1
  Li  Li121  1  0.93527858  0.30128948  0.45303447  1
  Li  Li122  1  0.69871052  0.63398910  0.45303447  1
  Li  Li123  1  0.73138808  0.69934423  0.38029886  1
  Li  Li124  1  0.96795615  0.26861192  0.38029886  1
  Li  Li125  1  0.30065577  0.03204385  0.38029886  1
  Li  Li126  1  0.26270983  0.00000000  0.25000000  1
  Li  Li127  1  0.00000000  0.26270983  0.25000000  1
  Li  Li128  1  0.73729017  0.73729017  0.25000000  1
  Li  Li129  1  0.73729017  0.00000000  0.75000000  1
  Li  Li130  1  0.00000000  0.73729017  0.75000000  1
  Li  Li131  1  0.26270983  0.26270983  0.75000000  1
  Li  Li132  1  0.92937650  0.33333333  0.58333333  1
  Li  Li133  1  0.66666667  0.59604316  0.58333333  1
  Li  Li134  1  0.40395684  0.07062350  0.58333333  1
  Li  Li135  1  0.40395684  0.33333333  0.08333333  1
  Li  Li136  1  0.66666667  0.07062350  0.08333333  1
  Li  Li137  1  0.92937650  0.59604316  0.08333333  1
  Li  Li138  1  0.59604316  0.66666667  0.91666667  1
  Li  Li139  1  0.33333333  0.92937650  0.91666667  1
  Li  Li140  1  0.07062350  0.40395684  0.91666667  1
  Li  Li141  1  0.07062350  0.66666667  0.41666667  1
  Li  Li142  1  0.33333333  0.40395684  0.41666667  1
  Li  Li143  1  0.59604316  0.92937650  0.41666667  1
  Te  Te144  1  0.50000000  0.00000000  0.00000000  1
  Te  Te145  1  0.00000000  0.50000000  0.00000000  1
  Te  Te146  1  0.50000000  0.50000000  0.00000000  1
  Te  Te147  1  0.00000000  0.50000000  0.50000000  1
  Te  Te148  1  0.50000000  0.00000000  0.50000000  1
  Te  Te149  1  0.50000000  0.50000000  0.50000000  1
  Te  Te150  1  0.16666667  0.33333333  0.33333333  1
  Te  Te151  1  0.66666667  0.83333333  0.33333333  1
  Te  Te152  1  0.16666667  0.83333333  0.33333333  1
  Te  Te153  1  0.66666667  0.83333333  0.83333333  1
  Te  Te154  1  0.16666667  0.33333333  0.83333333  1
  Te  Te155  1  0.16666667  0.83333333  0.83333333  1
  Te  Te156  1  0.83333333  0.66666667  0.66666667  1
  Te  Te157  1  0.33333333  0.16666667  0.66666667  1
  Te  Te158  1  0.83333333  0.16666667  0.66666667  1
  Te  Te159  1  0.33333333  0.16666667  0.16666667  1
  Te  Te160  1  0.83333333  0.66666667  0.16666667  1
  Te  Te161  1  0.83333333  0.16666667  0.16666667  1
  Te  Te162  1  0.00000000  0.00000000  0.25000000  1
  Te  Te163  1  0.00000000  0.00000000  0.75000000  1
  Te  Te164  1  0.66666667  0.33333333  0.58333333  1
  Te  Te165  1  0.66666667  0.33333333  0.08333333  1
  Te  Te166  1  0.33333333  0.66666667  0.91666667  1
  Te  Te167  1  0.33333333  0.66666667  0.41666667  1
