# generated using pymatgen
data_Li2YAsP3Se
_symmetry_space_group_name_H-M   'P 1'
_cell_length_a   5.03186250
_cell_length_b   5.22008100
_cell_length_c   7.11002431
_cell_angle_alpha   94.92307821
_cell_angle_beta   100.54361687
_cell_angle_gamma   108.35838114
_symmetry_Int_Tables_number   1
_chemical_formula_structural   Li2YAsP3Se
_chemical_formula_sum   'Li2 Y1 As1 P3 Se1'
_cell_volume   172.18766764
_cell_formula_units_Z   1
loop_
 _symmetry_equiv_pos_site_id
 _symmetry_equiv_pos_as_xyz
  1  'x, y, z'
loop_
 _atom_site_type_symbol
 _atom_site_label
 _atom_site_symmetry_multiplicity
 _atom_site_fract_x
 _atom_site_fract_y
 _atom_site_fract_z
 _atom_site_occupancy
  Se  Se0  1  0.12500000  0.00000000  0.25000000  1
  P  P1  1  0.00000000  0.00000000  0.00000000  1
  P  P2  1  0.37500000  0.00000000  0.25000000  1
  P  P3  1  0.25000000  0.25000000  0.25000000  1
  As  As4  1  0.00000000  0.25000000  0.12500000  1
  Li  Li5  1  0.37639042  0.55336903  0.57198898  1
  Li  Li6  1  0.29053473  0.80540421  0.62100177  1
  Y  Y7  1  0.00760185  0.18012740  0.33486074  1
