# generated using pymatgen
data_Li2Y2Mo2P3Se
_symmetry_space_group_name_H-M   'P 1'
_cell_length_a   4.20291502
_cell_length_b   4.55507789
_cell_length_c   6.25219980
_cell_angle_alpha   94.26537436
_cell_angle_beta   99.75775148
_cell_angle_gamma   107.51410308
_symmetry_Int_Tables_number   1
_chemical_formula_structural   Li2Y2Mo2P3Se
_chemical_formula_sum   'Li2 Y2 Mo2 P3 Se1'
_cell_volume   111.49025891
_cell_formula_units_Z   1
loop_
 _symmetry_equiv_pos_site_id
 _symmetry_equiv_pos_as_xyz
  1  'x, y, z'
loop_
 _atom_site_type_symbol
 _atom_site_label
 _atom_site_symmetry_multiplicity
 _atom_site_fract_x
 _atom_site_fract_y
 _atom_site_fract_z
 _atom_site_occupancy
  P  P0  1  0.00000000  0.00000000  0.00000000  1
  P  P1  1  0.50000000  0.50000000  0.50000000  1
  P  P2  1  0.25000000  0.25000000  0.25000000  1
  Mo  Mo3  1  0.75000000  0.25000000  0.00000000  1
  Mo  Mo4  1  0.25000000  0.75000000  0.50000000  1
  Se  Se5  1  0.54265509  0.32223283  0.92538735  1
  Li  Li6  1  0.09403703  0.16518637  0.50109581  1
  Li  Li7  1  0.91044466  0.13497407  0.97660520  1
  Y  Y8  1  0.78825030  0.36347627  0.98970076  1
  Y  Y9  1  0.00957832  0.83433779  0.06324817  1
