# generated using pymatgen
data_LiCaF3
_symmetry_space_group_name_H-M   'P 1'
_cell_length_a   13.93505536
_cell_length_b   13.93505536
_cell_length_c   12.63640644
_cell_angle_alpha   90.00000000
_cell_angle_beta   90.00000000
_cell_angle_gamma   120.00000000
_symmetry_Int_Tables_number   1
_chemical_formula_structural   LiCaF3
_chemical_formula_sum   'Li18 Ca18 F54'
_cell_volume   2125.06204502
_cell_formula_units_Z   18
loop_
 _symmetry_equiv_pos_site_id
 _symmetry_equiv_pos_as_xyz
  1  'x, y, z'
loop_
 _atom_site_type_symbol
 _atom_site_label
 _atom_site_symmetry_multiplicity
 _atom_site_fract_x
 _atom_site_fract_y
 _atom_site_fract_z
 _atom_site_occupancy
  Ca  Ca0  1  0.50000000  0.00000000  -0.00000000  1
  Ca  Ca1  1  0.00000000  0.50000000  0.00000000  1
  Ca  Ca2  1  0.50000000  0.50000000  0.00000000  1
  Ca  Ca3  1  0.00000000  0.50000000  0.50000000  1
  Ca  Ca4  1  0.50000000  0.00000000  0.50000000  1
  Ca  Ca5  1  0.50000000  0.50000000  0.50000000  1
  Ca  Ca6  1  0.16666667  0.33333333  0.33333333  1
  Ca  Ca7  1  0.66666667  0.83333333  0.33333333  1
  Ca  Ca8  1  0.16666667  0.83333333  0.33333333  1
  Ca  Ca9  1  0.66666667  0.83333333  0.83333333  1
  Ca  Ca10  1  0.16666667  0.33333333  0.83333333  1
  Ca  Ca11  1  0.16666667  0.83333333  0.83333333  1
  Ca  Ca12  1  0.83333333  0.66666667  0.66666667  1
  Ca  Ca13  1  0.33333333  0.16666667  0.66666667  1
  Ca  Ca14  1  0.83333333  0.16666667  0.66666667  1
  Ca  Ca15  1  0.33333333  0.16666667  0.16666667  1
  Ca  Ca16  1  0.83333333  0.66666667  0.16666667  1
  Ca  Ca17  1  0.83333333  0.16666667  0.16666667  1
  F  F18  1  0.00000000  0.00000000  0.00000000  1
  F  F19  1  0.00000000  0.00000000  0.50000000  1
  F  F20  1  0.66666667  0.33333333  0.33333333  1
  F  F21  1  0.66666667  0.33333333  0.83333333  1
  F  F22  1  0.33333333  0.66666667  0.66666667  1
  F  F23  1  0.33333333  0.66666667  0.16666667  1
  F  F24  1  0.32373697  0.99789915  0.71268332  1
  F  F25  1  -0.99789915  -0.67416218  0.71268332  1
  F  F26  1  0.67416218  -0.32373697  0.71268332  1
  F  F27  1  0.99789915  0.32373697  -0.21268332  1
  F  F28  1  -0.67416218  -0.99789915  -0.21268332  1
  F  F29  1  -0.32373697  0.67416218  -0.21268332  1
  F  F30  1  -0.32373697  -0.99789915  -0.71268332  1
  F  F31  1  0.99789915  0.67416218  -0.71268332  1
  F  F32  1  -0.67416218  0.32373697  -0.71268332  1
  F  F33  1  -0.99789915  -0.32373697  1.21268332  1
  F  F34  1  0.67416218  0.99789915  1.21268332  1
  F  F35  1  0.32373697  -0.67416218  1.21268332  1
  F  F36  1  0.99040364  1.33123248  1.04601665  1
  F  F37  1  -0.33123248  -0.34082885  1.04601665  1
  F  F38  1  1.34082885  0.00959636  1.04601665  1
  F  F39  1  1.66456582  0.65707030  0.12065002  1
  F  F40  1  -0.00749551  -0.66456582  0.12065002  1
  F  F41  1  0.34292970  1.00749551  0.12065002  1
  F  F42  1  0.34292970  -0.66456582  -0.37934998  1
  F  F43  1  1.66456582  1.00749551  -0.37934998  1
  F  F44  1  -0.00749551  0.65707030  -0.37934998  1
  F  F45  1  -0.33123248  0.00959636  1.54601665  1
  F  F46  1  1.34082885  1.33123248  1.54601665  1
  F  F47  1  0.99040364  -0.34082885  1.54601665  1
  F  F48  1  0.65707030  1.66456582  1.37934998  1
  F  F49  1  -0.66456582  -0.00749551  1.37934998  1
  F  F50  1  1.00749551  0.34292970  1.37934998  1
  F  F51  1  1.33123248  0.99040364  0.45398335  1
  F  F52  1  -0.34082885  -0.33123248  0.45398335  1
  F  F53  1  0.00959636  1.34082885  0.45398335  1
  F  F54  1  0.00959636  -0.33123248  -0.04601665  1
  F  F55  1  1.33123248  1.34082885  -0.04601665  1
  F  F56  1  -0.34082885  0.99040364  -0.04601665  1
  F  F57  1  -0.66456582  0.34292970  1.87934998  1
  F  F58  1  1.00749551  1.66456582  1.87934998  1
  F  F59  1  0.65707030  -0.00749551  1.87934998  1
  F  F60  1  0.00000000  0.00000000  0.29978832  1
  F  F61  1  0.00000000  0.00000000  0.20021168  1
  F  F62  1  0.00000000  0.00000000  0.70021168  1
  F  F63  1  0.00000000  0.00000000  0.79978832  1
  F  F64  1  0.66666667  0.33333333  0.63312166  1
  F  F65  1  0.66666667  0.33333333  0.53354501  1
  F  F66  1  0.66666667  0.33333333  0.03354501  1
  F  F67  1  0.66666667  0.33333333  0.13312166  1
  F  F68  1  0.33333333  0.66666667  0.96645499  1
  F  F69  1  0.33333333  0.66666667  0.86687834  1
  F  F70  1  0.33333333  0.66666667  0.36687834  1
  F  F71  1  0.33333333  0.66666667  0.46645499  1
  Li  Li72  1  0.37558118  0.00000000  0.25000000  1
  Li  Li73  1  0.00000000  0.37558118  0.25000000  1
  Li  Li74  1  0.62441882  0.62441882  0.25000000  1
  Li  Li75  1  0.62441882  0.00000000  0.75000000  1
  Li  Li76  1  0.00000000  0.62441882  0.75000000  1
  Li  Li77  1  0.37558118  0.37558118  0.75000000  1
  Li  Li78  1  0.04224785  0.33333333  0.58333333  1
  Li  Li79  1  0.66666667  0.70891452  0.58333333  1
  Li  Li80  1  0.29108548  0.95775215  0.58333333  1
  Li  Li81  1  0.29108548  0.33333333  0.08333333  1
  Li  Li82  1  0.66666667  0.95775215  0.08333333  1
  Li  Li83  1  0.04224785  0.70891452  0.08333333  1
  Li  Li84  1  0.70891452  0.66666667  0.91666667  1
  Li  Li85  1  0.33333333  0.04224785  0.91666667  1
  Li  Li86  1  0.95775215  0.29108548  0.91666667  1
  Li  Li87  1  0.95775215  0.66666667  0.41666667  1
  Li  Li88  1  0.33333333  0.29108548  0.41666667  1
  Li  Li89  1  0.70891452  0.04224785  0.41666667  1
