# generated using pymatgen
data_LiF
_symmetry_space_group_name_H-M   'P 1'
_cell_length_a   4.47774814
_cell_length_b   8.37192915
_cell_length_c   11.33765248
_cell_angle_alpha   90.00000000
_cell_angle_beta   90.00000000
_cell_angle_gamma   90.00000000
_symmetry_Int_Tables_number   1
_chemical_formula_structural   LiF
_chemical_formula_sum   'Li24 F24'
_cell_volume   425.01900238
_cell_formula_units_Z   24
loop_
 _symmetry_equiv_pos_site_id
 _symmetry_equiv_pos_as_xyz
  1  'x, y, z'
loop_
 _atom_site_type_symbol
 _atom_site_label
 _atom_site_symmetry_multiplicity
 _atom_site_fract_x
 _atom_site_fract_y
 _atom_site_fract_z
 _atom_site_occupancy
  F  F0  1  0.35847549  0.72839134  0.35884721  1
  F  F1  1  0.64152451  0.27160866  0.35884721  1
  F  F2  1  0.14152451  0.22839134  0.14115279  1
  F  F3  1  0.85847549  0.77160866  0.14115279  1
  F  F4  1  0.64152451  0.27160866  0.64115279  1
  F  F5  1  0.35847549  0.72839134  0.64115279  1
  F  F6  1  0.85847549  0.77160866  0.85884721  1
  F  F7  1  0.14152451  0.22839134  0.85884721  1
  F  F8  1  0.19204307  0.79565063  0.43537743  1
  F  F9  1  0.80795693  0.20434937  0.43537743  1
  F  F10  1  0.30795693  0.29565063  0.06462257  1
  F  F11  1  0.69204307  0.70434937  0.06462257  1
  F  F12  1  0.80795693  0.20434937  0.56462257  1
  F  F13  1  0.19204307  0.79565063  0.56462257  1
  F  F14  1  0.69204307  0.70434937  0.93537743  1
  F  F15  1  0.30795693  0.29565063  0.93537743  1
  F  F16  1  0.74598376  0.88214283  0.25012981  1
  F  F17  1  0.25401624  0.11785717  0.25012981  1
  F  F18  1  0.75401624  0.38214283  0.24987019  1
  F  F19  1  0.24598376  0.61785717  0.24987019  1
  F  F20  1  0.25401624  0.11785717  0.74987019  1
  F  F21  1  0.74598376  0.88214283  0.74987019  1
  F  F22  1  0.24598376  0.61785717  0.75012981  1
  F  F23  1  0.75401624  0.38214283  0.75012981  1
  Li  Li24  1  0.00000000  0.50000000  0.13460694  1
  Li  Li25  1  0.50000000  0.00000000  0.36539306  1
  Li  Li26  1  0.00000000  0.50000000  0.86539306  1
  Li  Li27  1  0.50000000  0.00000000  0.63460694  1
  Li  Li28  1  0.00000000  0.50000000  0.50000000  1
  Li  Li29  1  0.50000000  0.00000000  0.00000000  1
  Li  Li30  1  0.02008063  0.57844510  0.69300322  1
  Li  Li31  1  -0.02008063  -0.57844510  0.69300322  1
  Li  Li32  1  0.47991937  1.07844510  -0.19300322  1
  Li  Li33  1  0.52008063  -0.07844510  -0.19300322  1
  Li  Li34  1  -0.02008063  -0.57844510  -0.69300322  1
  Li  Li35  1  0.02008063  0.57844510  -0.69300322  1
  Li  Li36  1  0.52008063  -0.07844510  1.19300322  1
  Li  Li37  1  0.47991937  1.07844510  1.19300322  1
  Li  Li38  1  0.60474047  0.55680728  0.12774986  1
  Li  Li39  1  0.39525953  0.44319272  0.12774986  1
  Li  Li40  1  0.89525953  0.05680728  0.37225014  1
  Li  Li41  1  0.10474047  0.94319272  0.37225014  1
  Li  Li42  1  0.39525953  0.44319272  0.87225014  1
  Li  Li43  1  0.60474047  0.55680728  0.87225014  1
  Li  Li44  1  0.10474047  0.94319272  0.62774986  1
  Li  Li45  1  0.89525953  0.05680728  0.62774986  1
  Li  Li46  1  0.00000000  0.50000000  -0.00000000  1
  Li  Li47  1  0.50000000  0.00000000  0.50000000  1
