# generated using pymatgen
data_LiF
_symmetry_space_group_name_H-M   'P 1'
_cell_length_a   10.24803729
_cell_length_b   10.24803729
_cell_length_c   17.76028021
_cell_angle_alpha   90.00000000
_cell_angle_beta   90.00000000
_cell_angle_gamma   120.00000000
_symmetry_Int_Tables_number   1
_chemical_formula_structural   LiF
_chemical_formula_sum   'Li78 F78'
_cell_volume   1615.33215810
_cell_formula_units_Z   78
loop_
 _symmetry_equiv_pos_site_id
 _symmetry_equiv_pos_as_xyz
  1  'x, y, z'
loop_
 _atom_site_type_symbol
 _atom_site_label
 _atom_site_symmetry_multiplicity
 _atom_site_fract_x
 _atom_site_fract_y
 _atom_site_fract_z
 _atom_site_occupancy
  F  F0  1  0.39852393  0.05790376  0.37037180  1
  F  F1  1  0.94209624  0.34062017  0.37037180  1
  F  F2  1  0.65937983  0.60147607  0.37037180  1
  F  F3  1  0.05790376  0.39852393  0.12962820  1
  F  F4  1  0.34062017  0.94209624  0.12962820  1
  F  F5  1  0.60147607  0.65937983  0.12962820  1
  F  F6  1  0.60147607  0.94209624  0.62962820  1
  F  F7  1  0.05790376  0.65937983  0.62962820  1
  F  F8  1  0.34062017  0.39852393  0.62962820  1
  F  F9  1  0.94209624  0.60147607  0.87037180  1
  F  F10  1  0.65937983  0.05790376  0.87037180  1
  F  F11  1  0.39852393  0.34062017  0.87037180  1
  F  F12  1  0.06519060  0.39123710  0.70370514  1
  F  F13  1  0.60876290  0.67395350  0.70370514  1
  F  F14  1  0.32604650  0.93480940  0.70370514  1
  F  F15  1  0.72457043  0.73185726  0.46296153  1
  F  F16  1  0.00728683  0.27542957  0.46296153  1
  F  F17  1  0.26814274  0.99271317  0.46296153  1
  F  F18  1  0.26814274  0.27542957  0.96296153  1
  F  F19  1  0.72457043  0.99271317  0.96296153  1
  F  F20  1  0.00728683  0.73185726  0.96296153  1
  F  F21  1  0.60876290  0.93480940  0.20370514  1
  F  F22  1  0.32604650  0.39123710  0.20370514  1
  F  F23  1  0.06519060  0.67395350  0.20370514  1
  F  F24  1  0.73185726  0.72457043  0.03703847  1
  F  F25  1  0.27542957  0.00728683  0.03703847  1
  F  F26  1  0.99271317  0.26814274  0.03703847  1
  F  F27  1  0.39123710  0.06519060  0.79629486  1
  F  F28  1  0.67395350  0.60876290  0.79629486  1
  F  F29  1  0.93480940  0.32604650  0.79629486  1
  F  F30  1  0.93480940  0.60876290  0.29629486  1
  F  F31  1  0.39123710  0.32604650  0.29629486  1
  F  F32  1  0.67395350  0.06519060  0.29629486  1
  F  F33  1  0.27542957  0.26814274  0.53703847  1
  F  F34  1  0.99271317  0.72457043  0.53703847  1
  F  F35  1  0.73185726  0.00728683  0.53703847  1
  F  F36  1  0.35346935  0.22919890  0.45179443  1
  F  F37  1  0.77080110  0.12427045  0.45179443  1
  F  F38  1  0.87572955  0.64653065  0.45179443  1
  F  F39  1  0.22919890  0.35346935  0.04820557  1
  F  F40  1  0.12427045  0.77080110  0.04820557  1
  F  F41  1  0.64653065  0.87572955  0.04820557  1
  F  F42  1  0.64653065  0.77080110  0.54820557  1
  F  F43  1  0.22919890  0.87572955  0.54820557  1
  F  F44  1  0.12427045  0.35346935  0.54820557  1
  F  F45  1  0.77080110  0.64653065  0.95179443  1
  F  F46  1  0.87572955  0.22919890  0.95179443  1
  F  F47  1  0.35346935  0.12427045  0.95179443  1
  F  F48  1  0.02013602  0.56253223  0.78512776  1
  F  F49  1  0.43746777  0.45760378  0.78512776  1
  F  F50  1  0.54239622  0.97986398  0.78512776  1
  F  F51  1  0.89586556  0.68680268  0.38153890  1
  F  F52  1  0.79093712  0.10413444  0.38153890  1
  F  F53  1  0.31319732  0.20906288  0.38153890  1
  F  F54  1  0.31319732  0.10413444  0.88153890  1
  F  F55  1  0.89586556  0.20906288  0.88153890  1
  F  F56  1  0.79093712  0.68680268  0.88153890  1
  F  F57  1  0.43746777  0.97986398  0.28512776  1
  F  F58  1  0.54239622  0.56253223  0.28512776  1
  F  F59  1  0.02013602  0.45760378  0.28512776  1
  F  F60  1  0.68680268  0.89586556  0.11846110  1
  F  F61  1  0.10413444  0.79093712  0.11846110  1
  F  F62  1  0.20906288  0.31319732  0.11846110  1
  F  F63  1  0.56253223  0.02013602  0.71487224  1
  F  F64  1  0.45760378  0.43746777  0.71487224  1
  F  F65  1  0.97986398  0.54239622  0.71487224  1
  F  F66  1  0.97986398  0.43746777  0.21487224  1
  F  F67  1  0.56253223  0.54239622  0.21487224  1
  F  F68  1  0.45760378  0.02013602  0.21487224  1
  F  F69  1  0.10413444  0.31319732  0.61846110  1
  F  F70  1  0.20906288  0.89586556  0.61846110  1
  F  F71  1  0.68680268  0.79093712  0.61846110  1
  F  F72  1  0.00000000  0.00000000  0.00000000  1
  F  F73  1  0.00000000  0.00000000  0.50000000  1
  F  F74  1  0.66666667  0.33333333  0.33333333  1
  F  F75  1  0.66666667  0.33333333  0.83333333  1
  F  F76  1  0.33333333  0.66666667  0.66666667  1
  F  F77  1  0.33333333  0.66666667  0.16666667  1
  Li  Li78  1  0.31600937  0.41689583  0.97204026  1
  Li  Li79  1  -0.41689583  -0.10088645  0.97204026  1
  Li  Li80  1  0.10088645  -0.31600937  0.97204026  1
  Li  Li81  1  0.41689583  0.31600937  -0.47204026  1
  Li  Li82  1  -0.10088645  -0.41689583  -0.47204026  1
  Li  Li83  1  -0.31600937  0.10088645  -0.47204026  1
  Li  Li84  1  -0.31600937  -0.41689583  -0.97204026  1
  Li  Li85  1  0.41689583  0.10088645  -0.97204026  1
  Li  Li86  1  -0.10088645  0.31600937  -0.97204026  1
  Li  Li87  1  -0.41689583  -0.31600937  1.47204026  1
  Li  Li88  1  0.10088645  0.41689583  1.47204026  1
  Li  Li89  1  0.31600937  -0.10088645  1.47204026  1
  Li  Li90  1  0.98267604  0.75022916  1.30537359  1
  Li  Li91  1  0.24977084  0.23244688  1.30537359  1
  Li  Li92  1  0.76755312  0.01732396  1.30537359  1
  Li  Li93  1  1.08356249  0.64934271  -0.13870692  1
  Li  Li94  1  0.56578022  -0.08356249  -0.13870692  1
  Li  Li95  1  0.35065729  0.43421978  -0.13870692  1
  Li  Li96  1  0.35065729  -0.08356249  -0.63870692  1
  Li  Li97  1  1.08356249  0.43421978  -0.63870692  1
  Li  Li98  1  0.56578022  0.64934271  -0.63870692  1
  Li  Li99  1  0.24977084  0.01732396  1.80537359  1
  Li  Li100  1  0.76755312  0.75022916  1.80537359  1
  Li  Li101  1  0.98267604  0.23244688  1.80537359  1
  Li  Li102  1  0.64934271  1.08356249  1.63870692  1
  Li  Li103  1  -0.08356249  0.56578022  1.63870692  1
  Li  Li104  1  0.43421978  0.35065729  1.63870692  1
  Li  Li105  1  0.75022916  0.98267604  0.19462641  1
  Li  Li106  1  0.23244688  0.24977084  0.19462641  1
  Li  Li107  1  0.01732396  0.76755312  0.19462641  1
  Li  Li108  1  0.01732396  0.24977084  -0.30537359  1
  Li  Li109  1  0.75022916  0.76755312  -0.30537359  1
  Li  Li110  1  0.23244688  0.98267604  -0.30537359  1
  Li  Li111  1  -0.08356249  0.35065729  2.13870692  1
  Li  Li112  1  0.43421978  1.08356249  2.13870692  1
  Li  Li113  1  0.64934271  0.56578022  2.13870692  1
  Li  Li114  1  0.56954819  0.99809803  0.46671901  1
  Li  Li115  1  0.00190197  0.57145016  0.46671901  1
  Li  Li116  1  0.42854984  0.43045181  0.46671901  1
  Li  Li117  1  0.99809803  0.56954819  0.03328099  1
  Li  Li118  1  0.57145016  0.00190197  0.03328099  1
  Li  Li119  1  0.43045181  0.42854984  0.03328099  1
  Li  Li120  1  0.43045181  0.00190197  0.53328099  1
  Li  Li121  1  0.99809803  0.42854984  0.53328099  1
  Li  Li122  1  0.57145016  0.56954819  0.53328099  1
  Li  Li123  1  0.00190197  0.43045181  0.96671901  1
  Li  Li124  1  0.42854984  0.99809803  0.96671901  1
  Li  Li125  1  0.56954819  0.57145016  0.96671901  1
  Li  Li126  1  0.23621486  0.33143136  0.80005234  1
  Li  Li127  1  0.66856864  0.90478349  0.80005234  1
  Li  Li128  1  0.09521651  0.76378514  0.80005234  1
  Li  Li129  1  0.66476470  0.90288152  0.36661432  1
  Li  Li130  1  0.23811683  0.33523530  0.36661432  1
  Li  Li131  1  0.09711848  0.76188317  0.36661432  1
  Li  Li132  1  0.09711848  0.33523530  0.86661432  1
  Li  Li133  1  0.66476470  0.76188317  0.86661432  1
  Li  Li134  1  0.23811683  0.90288152  0.86661432  1
  Li  Li135  1  0.66856864  0.76378514  0.30005234  1
  Li  Li136  1  0.09521651  0.33143136  0.30005234  1
  Li  Li137  1  0.23621486  0.90478349  0.30005234  1
  Li  Li138  1  0.90288152  0.66476470  0.13338568  1
  Li  Li139  1  0.33523530  0.23811683  0.13338568  1
  Li  Li140  1  0.76188317  0.09711848  0.13338568  1
  Li  Li141  1  0.33143136  0.23621486  0.69994766  1
  Li  Li142  1  0.90478349  0.66856864  0.69994766  1
  Li  Li143  1  0.76378514  0.09521651  0.69994766  1
  Li  Li144  1  0.76378514  0.66856864  0.19994766  1
  Li  Li145  1  0.33143136  0.09521651  0.19994766  1
  Li  Li146  1  0.90478349  0.23621486  0.19994766  1
  Li  Li147  1  0.33523530  0.09711848  0.63338568  1
  Li  Li148  1  0.76188317  0.66476470  0.63338568  1
  Li  Li149  1  0.90288152  0.23811683  0.63338568  1
  Li  Li150  1  0.00000000  0.00000000  0.25000000  1
  Li  Li151  1  0.00000000  0.00000000  0.75000000  1
  Li  Li152  1  0.66666667  0.33333333  0.58333333  1
  Li  Li153  1  0.66666667  0.33333333  0.08333333  1
  Li  Li154  1  0.33333333  0.66666667  0.91666667  1
  Li  Li155  1  0.33333333  0.66666667  0.41666667  1
