# generated using pymatgen
data_LiF
_symmetry_space_group_name_H-M   'P 1'
_cell_length_a   7.43986713
_cell_length_b   8.70331844
_cell_length_c   19.76849306
_cell_angle_alpha   90.00000000
_cell_angle_beta   90.00000000
_cell_angle_gamma   90.00000000
_symmetry_Int_Tables_number   1
_chemical_formula_structural   LiF
_chemical_formula_sum   'Li36 F36'
_cell_volume   1280.04022550
_cell_formula_units_Z   36
loop_
 _symmetry_equiv_pos_site_id
 _symmetry_equiv_pos_as_xyz
  1  'x, y, z'
loop_
 _atom_site_type_symbol
 _atom_site_label
 _atom_site_symmetry_multiplicity
 _atom_site_fract_x
 _atom_site_fract_y
 _atom_site_fract_z
 _atom_site_occupancy
  F  F0  1  0.76726516  0.16374581  0.40905115  1
  F  F1  1  0.73273484  0.83625419  0.90905115  1
  F  F2  1  0.23273484  0.66374581  0.59094885  1
  F  F3  1  0.26726516  0.33625419  0.09094885  1
  F  F4  1  0.23273484  0.83625419  0.59094885  1
  F  F5  1  0.26726516  0.16374581  0.09094885  1
  F  F6  1  0.76726516  0.33625419  0.40905115  1
  F  F7  1  0.73273484  0.66374581  0.90905115  1
  F  F8  1  0.79599144  0.12983940  0.30419122  1
  F  F9  1  0.70400856  0.87016060  0.80419122  1
  F  F10  1  0.20400856  0.62983940  0.69580878  1
  F  F11  1  0.29599144  0.37016060  0.19580878  1
  F  F12  1  0.20400856  0.87016060  0.69580878  1
  F  F13  1  0.29599144  0.12983940  0.19580878  1
  F  F14  1  0.79599144  0.37016060  0.30419122  1
  F  F15  1  0.70400856  0.62983940  0.80419122  1
  F  F16  1  0.95571315  0.07914613  0.51508821  1
  F  F17  1  0.54428685  0.92085387  0.01508821  1
  F  F18  1  0.04428685  0.57914613  0.48491179  1
  F  F19  1  0.45571315  0.42085387  0.98491179  1
  F  F20  1  0.04428685  0.92085387  0.48491179  1
  F  F21  1  0.45571315  0.07914613  0.98491179  1
  F  F22  1  0.95571315  0.42085387  0.51508821  1
  F  F23  1  0.54428685  0.57914613  0.01508821  1
  F  F24  1  0.70354099  0.11266652  0.49940576  1
  F  F25  1  0.79645901  0.88733348  0.99940576  1
  F  F26  1  0.29645901  0.61266652  0.50059424  1
  F  F27  1  0.20354099  0.38733348  0.00059424  1
  F  F28  1  0.29645901  0.88733348  0.50059424  1
  F  F29  1  0.20354099  0.11266652  0.00059424  1
  F  F30  1  0.70354099  0.38733348  0.49940576  1
  F  F31  1  0.79645901  0.61266652  0.99940576  1
  F  F32  1  0.76174359  0.25000000  0.35727253  1
  F  F33  1  0.73825641  0.75000000  0.85727253  1
  F  F34  1  0.23825641  0.75000000  0.64272747  1
  F  F35  1  0.26174359  0.25000000  0.14272747  1
  Li  Li36  1  0.24762999  0.90123001  0.94572672  1
  Li  Li37  1  0.25237001  -0.90123001  1.44572672  1
  Li  Li38  1  -0.24762999  1.40123001  -0.94572672  1
  Li  Li39  1  0.74762999  -0.40123001  -0.44572672  1
  Li  Li40  1  -0.24762999  -0.90123001  -0.94572672  1
  Li  Li41  1  0.74762999  0.90123001  -0.44572672  1
  Li  Li42  1  0.24762999  -0.40123001  0.94572672  1
  Li  Li43  1  0.25237001  1.40123001  1.44572672  1
  Li  Li44  1  0.48963147  0.87516186  0.89301988  1
  Li  Li45  1  0.01036853  0.12483814  0.39301988  1
  Li  Li46  1  0.51036853  0.37516186  0.10698012  1
  Li  Li47  1  0.98963147  0.62483814  0.60698012  1
  Li  Li48  1  0.51036853  0.12483814  0.10698012  1
  Li  Li49  1  0.98963147  0.87516186  0.60698012  1
  Li  Li50  1  0.48963147  0.62483814  0.89301988  1
  Li  Li51  1  0.01036853  0.37516186  0.39301988  1
  Li  Li52  1  0.46777598  0.25000000  0.36839590  1
  Li  Li53  1  0.03222402  0.75000000  0.86839590  1
  Li  Li54  1  0.53222402  0.75000000  0.63160410  1
  Li  Li55  1  0.96777598  0.25000000  0.13160410  1
  Li  Li56  1  0.90628356  0.25000000  0.59634177  1
  Li  Li57  1  0.59371644  0.75000000  0.09634177  1
  Li  Li58  1  0.09371644  0.75000000  0.40365823  1
  Li  Li59  1  0.40628356  0.25000000  0.90365823  1
  Li  Li60  1  0.30004001  0.25000000  0.47505913  1
  Li  Li61  1  0.19995999  0.75000000  0.97505913  1
  Li  Li62  1  0.69995999  0.75000000  0.52494087  1
  Li  Li63  1  0.80004001  0.25000000  0.02494087  1
  Li  Li64  1  0.37317773  0.25000000  0.71983251  1
  Li  Li65  1  0.12682227  0.75000000  0.21983251  1
  Li  Li66  1  0.62682227  0.75000000  0.28016749  1
  Li  Li67  1  0.87317773  0.25000000  0.78016749  1
  Li  Li68  1  0.00000000  0.00000000  0.00000000  1
  Li  Li69  1  0.50000000  0.00000000  0.50000000  1
  Li  Li70  1  0.00000000  0.50000000  0.00000000  1
  Li  Li71  1  0.50000000  0.50000000  0.50000000  1
