# generated using pymatgen
data_LiF
_symmetry_space_group_name_H-M   'P 1'
_cell_length_a   7.11816796
_cell_length_b   7.11816796
_cell_length_c   7.99445955
_cell_angle_alpha   90.00000000
_cell_angle_beta   90.00000000
_cell_angle_gamma   120.00000000
_symmetry_Int_Tables_number   1
_chemical_formula_structural   LiF
_chemical_formula_sum   'Li14 F14'
_cell_volume   350.79726899
_cell_formula_units_Z   14
loop_
 _symmetry_equiv_pos_site_id
 _symmetry_equiv_pos_as_xyz
  1  'x, y, z'
loop_
 _atom_site_type_symbol
 _atom_site_label
 _atom_site_symmetry_multiplicity
 _atom_site_fract_x
 _atom_site_fract_y
 _atom_site_fract_z
 _atom_site_occupancy
  F  F0  1  0.33333333  0.66666667  0.75000000  1
  F  F1  1  0.66666667  0.33333333  0.25000000  1
  F  F2  1  0.33333333  0.66666667  0.25000000  1
  F  F3  1  0.66666667  0.33333333  0.75000000  1
  F  F4  1  0.79789459  0.59578918  0.25000000  1
  F  F5  1  0.40421082  0.20210541  0.25000000  1
  F  F6  1  0.79789459  0.20210541  0.25000000  1
  F  F7  1  0.20210541  0.40421082  0.75000000  1
  F  F8  1  0.59578918  0.79789459  0.75000000  1
  F  F9  1  0.20210541  0.79789459  0.75000000  1
  F  F10  1  0.00000000  0.00000000  0.91410495  1
  F  F11  1  0.00000000  0.00000000  0.41410495  1
  F  F12  1  0.00000000  0.00000000  0.08589505  1
  F  F13  1  0.00000000  0.00000000  0.58589505  1
  Li  Li14  1  0.48082245  0.96164489  0.57738480  1
  Li  Li15  1  -0.96164489  -0.48082245  0.57738480  1
  Li  Li16  1  0.48082245  -0.48082245  0.57738480  1
  Li  Li17  1  -0.48082245  -0.96164489  1.07738480  1
  Li  Li18  1  0.96164489  0.48082245  1.07738480  1
  Li  Li19  1  -0.48082245  0.48082245  1.07738480  1
  Li  Li20  1  0.96164489  0.48082245  -0.57738480  1
  Li  Li21  1  -0.48082245  -0.96164489  -0.57738480  1
  Li  Li22  1  -0.48082245  0.48082245  -0.57738480  1
  Li  Li23  1  -0.96164489  -0.48082245  -0.07738480  1
  Li  Li24  1  0.48082245  0.96164489  -0.07738480  1
  Li  Li25  1  0.48082245  -0.48082245  -0.07738480  1
  Li  Li26  1  0.00000000  0.00000000  0.25000000  1
  Li  Li27  1  0.00000000  0.00000000  0.75000000  1
