# generated using pymatgen
data_Li3Y2(P2Se)2
_symmetry_space_group_name_H-M   'P 1'
_cell_length_a   4.21925897
_cell_length_b   4.51080543
_cell_length_c   6.88082564
_cell_angle_alpha   96.11207991
_cell_angle_beta   103.31083936
_cell_angle_gamma   114.54979580
_symmetry_Int_Tables_number   1
_chemical_formula_structural   Li3Y2(P2Se)2
_chemical_formula_sum   'Li3 Y2 P4 Se2'
_cell_volume   112.85620416
_cell_formula_units_Z   1
loop_
 _symmetry_equiv_pos_site_id
 _symmetry_equiv_pos_as_xyz
  1  'x, y, z'
loop_
 _atom_site_type_symbol
 _atom_site_label
 _atom_site_symmetry_multiplicity
 _atom_site_fract_x
 _atom_site_fract_y
 _atom_site_fract_z
 _atom_site_occupancy
  Y  Y0  1  0.00000000  0.00000000  0.00000000  1
  Y  Y1  1  0.33300000  0.66700000  0.25000000  1
  P  P2  1  0.66700000  0.33300000  0.50000000  1
  P  P3  1  0.00000000  0.00000000  0.75000000  1
  P  P4  1  0.62236809  0.87589645  0.08433446  1
  P  P5  1  0.91105042  0.57456616  0.05164906  1
  Se  Se6  1  0.44583098  0.41773709  0.68897946  1
  Se  Se7  1  0.47913410  0.27694177  0.06510500  1
  Li  Li8  1  0.21899058  0.29868362  0.39809320  1
  Li  Li9  1  0.63316077  0.75488905  0.79739913  1
  Li  Li10  1  0.82718942  0.02490433  0.80790918  1
