# generated using pymatgen
data_LiF
_symmetry_space_group_name_H-M   'P 1'
_cell_length_a   11.76016916
_cell_length_b   5.36368150
_cell_length_c   6.89845065
_cell_angle_alpha   90.00000000
_cell_angle_beta   90.00000000
_cell_angle_gamma   90.00000000
_symmetry_Int_Tables_number   1
_chemical_formula_structural   LiF
_chemical_formula_sum   'Li16 F16'
_cell_volume   435.13910185
_cell_formula_units_Z   16
loop_
 _symmetry_equiv_pos_site_id
 _symmetry_equiv_pos_as_xyz
  1  'x, y, z'
loop_
 _atom_site_type_symbol
 _atom_site_label
 _atom_site_symmetry_multiplicity
 _atom_site_fract_x
 _atom_site_fract_y
 _atom_site_fract_z
 _atom_site_occupancy
  F  F0  1  0.00000000  0.50000000  0.50000000  1
  F  F1  1  0.50000000  0.00000000  -0.00000000  1
  F  F2  1  0.08558007  0.47629211  0.17756187  1
  F  F3  1  -0.08558007  -0.47629211  0.17756187  1
  F  F4  1  0.41441993  0.97629211  0.32243813  1
  F  F5  1  0.58558007  0.02370789  0.32243813  1
  F  F6  1  -0.08558007  -0.47629211  -0.17756187  1
  F  F7  1  0.08558007  0.47629211  -0.17756187  1
  F  F8  1  0.58558007  0.02370789  0.67756187  1
  F  F9  1  0.41441993  0.97629211  0.67756187  1
  F  F10  1  0.00000000  0.00000000  0.29529348  1
  F  F11  1  0.50000000  0.50000000  0.20470652  1
  F  F12  1  0.00000000  0.00000000  0.70470652  1
  F  F13  1  0.50000000  0.50000000  0.79529348  1
  F  F14  1  0.00000000  0.00000000  0.50000000  1
  F  F15  1  0.50000000  0.50000000  -0.00000000  1
  Li  Li16  1  0.62686606  0.57218460  0.00000000  1
  Li  Li17  1  0.37313394  0.42781540  -0.00000000  1
  Li  Li18  1  0.87313394  0.07218460  0.50000000  1
  Li  Li19  1  0.12686606  0.92781540  0.50000000  1
  Li  Li20  1  0.00000000  0.00000000  0.87436423  1
  Li  Li21  1  0.50000000  0.50000000  0.62563577  1
  Li  Li22  1  0.00000000  0.00000000  0.12563577  1
  Li  Li23  1  0.50000000  0.50000000  0.37436423  1
  Li  Li24  1  0.81744588  0.37766229  0.16360088  1
  Li  Li25  1  0.18255412  0.62233771  0.16360088  1
  Li  Li26  1  0.68255412  0.87766229  0.33639912  1
  Li  Li27  1  0.31744588  0.12233771  0.33639912  1
  Li  Li28  1  0.18255412  0.62233771  0.83639912  1
  Li  Li29  1  0.81744588  0.37766229  0.83639912  1
  Li  Li30  1  0.31744588  0.12233771  0.66360088  1
  Li  Li31  1  0.68255412  0.87766229  0.66360088  1
