# generated using pymatgen
data_LiF
_symmetry_space_group_name_H-M   'P 1'
_cell_length_a   7.19636271
_cell_length_b   12.12378053
_cell_length_c   5.81706632
_cell_angle_alpha   90.00000000
_cell_angle_beta   90.00000000
_cell_angle_gamma   90.00000000
_symmetry_Int_Tables_number   1
_chemical_formula_structural   LiF
_chemical_formula_sum   'Li28 F28'
_cell_volume   507.52229528
_cell_formula_units_Z   28
loop_
 _symmetry_equiv_pos_site_id
 _symmetry_equiv_pos_as_xyz
  1  'x, y, z'
loop_
 _atom_site_type_symbol
 _atom_site_label
 _atom_site_symmetry_multiplicity
 _atom_site_fract_x
 _atom_site_fract_y
 _atom_site_fract_z
 _atom_site_occupancy
  F  F0  1  0.00000000  0.50000000  0.28563940  1
  F  F1  1  0.50000000  0.00000000  0.21436060  1
  F  F2  1  0.00000000  0.50000000  0.71436060  1
  F  F3  1  0.50000000  0.00000000  0.78563940  1
  F  F4  1  0.00000000  0.00000000  0.00000000  1
  F  F5  1  0.50000000  0.50000000  0.50000000  1
  F  F6  1  0.53930831  0.84722839  0.09984853  1
  F  F7  1  -0.53930831  -0.84722839  0.09984853  1
  F  F8  1  -0.03930831  1.34722839  0.40015147  1
  F  F9  1  1.03930831  -0.34722839  0.40015147  1
  F  F10  1  -0.53930831  -0.84722839  -0.09984853  1
  F  F11  1  0.53930831  0.84722839  -0.09984853  1
  F  F12  1  1.03930831  -0.34722839  0.59984853  1
  F  F13  1  -0.03930831  1.34722839  0.59984853  1
  F  F14  1  0.78227188  0.44287990  0.11717245  1
  F  F15  1  0.21772812  0.55712010  0.11717245  1
  F  F16  1  0.71772812  0.94287990  0.38282755  1
  F  F17  1  0.28227188  0.05712010  0.38282755  1
  F  F18  1  0.21772812  0.55712010  0.88282755  1
  F  F19  1  0.78227188  0.44287990  0.88282755  1
  F  F20  1  0.28227188  0.05712010  0.61717245  1
  F  F21  1  0.71772812  0.94287990  0.61717245  1
  F  F22  1  0.44964363  0.67653013  0.00000000  1
  F  F23  1  0.55035637  0.32346987  -0.00000000  1
  F  F24  1  0.05035637  0.17653013  0.50000000  1
  F  F25  1  0.94964363  0.82346987  0.50000000  1
  F  F26  1  0.00000000  0.00000000  0.50000000  1
  F  F27  1  0.50000000  0.50000000  0.00000000  1
  Li  Li28  1  0.82968254  0.84916935  0.15768751  1
  Li  Li29  1  0.17031746  0.15083065  0.15768751  1
  Li  Li30  1  0.67031746  0.34916935  0.34231249  1
  Li  Li31  1  0.32968254  0.65083065  0.34231249  1
  Li  Li32  1  0.17031746  0.15083065  0.84231249  1
  Li  Li33  1  0.82968254  0.84916935  0.84231249  1
  Li  Li34  1  0.32968254  0.65083065  0.65768751  1
  Li  Li35  1  0.67031746  0.34916935  0.65768751  1
  Li  Li36  1  0.90022853  0.71803931  0.71612352  1
  Li  Li37  1  0.09977147  0.28196069  0.71612352  1
  Li  Li38  1  0.59977147  0.21803931  0.78387648  1
  Li  Li39  1  0.40022853  0.78196069  0.78387648  1
  Li  Li40  1  0.09977147  0.28196069  0.28387648  1
  Li  Li41  1  0.90022853  0.71803931  0.28387648  1
  Li  Li42  1  0.40022853  0.78196069  0.21612352  1
  Li  Li43  1  0.59977147  0.21803931  0.21612352  1
  Li  Li44  1  0.92733189  0.56000813  0.79847494  1
  Li  Li45  1  0.07266811  0.43999187  0.79847494  1
  Li  Li46  1  0.57266811  0.06000813  0.70152506  1
  Li  Li47  1  0.42733189  0.93999187  0.70152506  1
  Li  Li48  1  0.07266811  0.43999187  0.20152506  1
  Li  Li49  1  0.92733189  0.56000813  0.20152506  1
  Li  Li50  1  0.42733189  0.93999187  0.29847494  1
  Li  Li51  1  0.57266811  0.06000813  0.29847494  1
  Li  Li52  1  0.68474634  0.64664045  0.00000000  1
  Li  Li53  1  0.31525366  0.35335955  0.00000000  1
  Li  Li54  1  0.81525366  0.14664045  0.50000000  1
  Li  Li55  1  0.18474634  0.85335955  0.50000000  1
