# generated using pymatgen
data_LiF
_symmetry_space_group_name_H-M   'P 1'
_cell_length_a   8.70847457
_cell_length_b   5.22630180
_cell_length_c   10.15382550
_cell_angle_alpha   90.00000000
_cell_angle_beta   90.00000000
_cell_angle_gamma   90.00000000
_symmetry_Int_Tables_number   1
_chemical_formula_structural   LiF
_chemical_formula_sum   'Li24 F24'
_cell_volume   462.13224068
_cell_formula_units_Z   24
loop_
 _symmetry_equiv_pos_site_id
 _symmetry_equiv_pos_as_xyz
  1  'x, y, z'
loop_
 _atom_site_type_symbol
 _atom_site_label
 _atom_site_symmetry_multiplicity
 _atom_site_fract_x
 _atom_site_fract_y
 _atom_site_fract_z
 _atom_site_occupancy
  F  F0  1  0.23641570  0.85441518  0.84554683  1
  F  F1  1  0.26358430  0.14558482  0.34554683  1
  F  F2  1  0.76358430  0.35441518  0.15445317  1
  F  F3  1  0.73641570  0.64558482  0.65445317  1
  F  F4  1  0.76358430  0.14558482  0.15445317  1
  F  F5  1  0.73641570  0.85441518  0.65445317  1
  F  F6  1  0.23641570  0.64558482  0.84554683  1
  F  F7  1  0.26358430  0.35441518  0.34554683  1
  F  F8  1  0.58122932  0.25000000  0.58843312  1
  F  F9  1  0.91877068  0.75000000  0.08843312  1
  F  F10  1  0.41877068  0.75000000  0.41156688  1
  F  F11  1  0.08122932  0.25000000  0.91156688  1
  F  F12  1  0.73827387  0.93558144  0.05291100  1
  F  F13  1  0.76172613  0.06441856  0.55291100  1
  F  F14  1  0.26172613  0.43558144  0.94708900  1
  F  F15  1  0.23827387  0.56441856  0.44708900  1
  F  F16  1  0.26172613  0.06441856  0.94708900  1
  F  F17  1  0.23827387  0.93558144  0.44708900  1
  F  F18  1  0.73827387  0.56441856  0.05291100  1
  F  F19  1  0.76172613  0.43558144  0.55291100  1
  F  F20  1  0.00000000  0.00000000  0.00000000  1
  F  F21  1  0.50000000  0.00000000  0.50000000  1
  F  F22  1  0.00000000  0.50000000  0.00000000  1
  F  F23  1  0.50000000  0.50000000  0.50000000  1
  Li  Li24  1  0.35905601  0.25000000  0.13195404  1
  Li  Li25  1  0.14094399  0.75000000  0.63195404  1
  Li  Li26  1  0.64094399  0.75000000  0.86804596  1
  Li  Li27  1  0.85905601  0.25000000  0.36804596  1
  Li  Li28  1  0.00000000  0.00000000  0.50000000  1
  Li  Li29  1  0.50000000  0.00000000  0.00000000  1
  Li  Li30  1  0.00000000  0.50000000  0.50000000  1
  Li  Li31  1  0.50000000  0.50000000  0.00000000  1
  Li  Li32  1  0.28192195  0.25000000  0.48501139  1
  Li  Li33  1  0.21807805  0.75000000  0.98501139  1
  Li  Li34  1  0.71807805  0.75000000  0.51498861  1
  Li  Li35  1  0.78192195  0.25000000  0.01498861  1
  Li  Li36  1  0.93254082  0.25000000  0.00722809  1
  Li  Li37  1  0.56745918  0.75000000  0.50722809  1
  Li  Li38  1  0.06745918  0.75000000  0.99277191  1
  Li  Li39  1  0.43254082  0.25000000  0.49277191  1
  Li  Li40  1  0.02057236  0.44658789  0.37101970  1
  Li  Li41  1  0.47942764  -0.44658789  0.87101970  1
  Li  Li42  1  -0.02057236  0.94658789  -0.37101970  1
  Li  Li43  1  0.52057236  0.05341211  0.12898030  1
  Li  Li44  1  -0.02057236  -0.44658789  -0.37101970  1
  Li  Li45  1  0.52057236  0.44658789  0.12898030  1
  Li  Li46  1  0.02057236  0.05341211  0.37101970  1
  Li  Li47  1  0.47942764  0.94658789  0.87101970  1
