# generated using pymatgen
data_LiF
_symmetry_space_group_name_H-M   'P 1'
_cell_length_a   11.23873682
_cell_length_b   9.75600594
_cell_length_c   7.50342652
_cell_angle_alpha   90.00000000
_cell_angle_beta   90.00000000
_cell_angle_gamma   90.00000000
_symmetry_Int_Tables_number   1
_chemical_formula_structural   LiF
_chemical_formula_sum   'Li24 F24'
_cell_volume   822.71457432
_cell_formula_units_Z   24
loop_
 _symmetry_equiv_pos_site_id
 _symmetry_equiv_pos_as_xyz
  1  'x, y, z'
loop_
 _atom_site_type_symbol
 _atom_site_label
 _atom_site_symmetry_multiplicity
 _atom_site_fract_x
 _atom_site_fract_y
 _atom_site_fract_z
 _atom_site_occupancy
  F  F0  1  0.35518770  0.25000000  0.98907395  1
  F  F1  1  0.14481230  0.75000000  0.48907395  1
  F  F2  1  0.64481230  0.75000000  0.01092605  1
  F  F3  1  0.85518770  0.25000000  0.51092605  1
  F  F4  1  0.76526860  0.33645394  0.91930349  1
  F  F5  1  0.73473140  0.66354606  0.41930349  1
  F  F6  1  0.23473140  0.83645394  0.08069651  1
  F  F7  1  0.26526860  0.16354606  0.58069651  1
  F  F8  1  0.23473140  0.66354606  0.08069651  1
  F  F9  1  0.26526860  0.33645394  0.58069651  1
  F  F10  1  0.76526860  0.16354606  0.91930349  1
  F  F11  1  0.73473140  0.83645394  0.41930349  1
  F  F12  1  0.54253567  0.25000000  0.63472251  1
  F  F13  1  0.95746433  0.75000000  0.13472251  1
  F  F14  1  0.45746433  0.75000000  0.36527749  1
  F  F15  1  0.04253567  0.25000000  0.86527749  1
  F  F16  1  0.15045271  0.88145004  0.12037389  1
  F  F17  1  0.34954729  0.11854996  0.62037389  1
  F  F18  1  0.84954729  0.38145004  0.87962611  1
  F  F19  1  0.65045271  0.61854996  0.37962611  1
  F  F20  1  0.84954729  0.11854996  0.87962611  1
  F  F21  1  0.65045271  0.88145004  0.37962611  1
  F  F22  1  0.15045271  0.61854996  0.12037389  1
  F  F23  1  0.34954729  0.38145004  0.62037389  1
  Li  Li24  1  0.00000000  0.00000000  0.00000000  1
  Li  Li25  1  0.50000000  -0.00000000  0.50000000  1
  Li  Li26  1  0.00000000  0.50000000  0.00000000  1
  Li  Li27  1  0.50000000  0.50000000  0.50000000  1
  Li  Li28  1  0.63537873  0.84492205  0.81736325  1
  Li  Li29  1  -0.13537873  -0.84492205  1.31736325  1
  Li  Li30  1  -0.63537873  1.34492205  -0.81736325  1
  Li  Li31  1  1.13537873  -0.34492205  -0.31736325  1
  Li  Li32  1  -0.63537873  -0.84492205  -0.81736325  1
  Li  Li33  1  1.13537873  0.84492205  -0.31736325  1
  Li  Li34  1  0.63537873  -0.34492205  0.81736325  1
  Li  Li35  1  -0.13537873  1.34492205  1.31736325  1
  Li  Li36  1  0.00000000  0.00000000  0.50000000  1
  Li  Li37  1  0.50000000  -0.00000000  -0.00000000  1
  Li  Li38  1  0.00000000  0.50000000  0.50000000  1
  Li  Li39  1  0.50000000  0.50000000  -0.00000000  1
  Li  Li40  1  0.08063850  0.47761540  0.25955819  1
  Li  Li41  1  0.41936150  0.52238460  0.75955819  1
  Li  Li42  1  0.91936150  0.97761540  0.74044181  1
  Li  Li43  1  0.58063850  0.02238460  0.24044181  1
  Li  Li44  1  0.91936150  0.52238460  0.74044181  1
  Li  Li45  1  0.58063850  0.47761540  0.24044181  1
  Li  Li46  1  0.08063850  0.02238460  0.25955819  1
  Li  Li47  1  0.41936150  0.97761540  0.75955819  1
