# generated using pymatgen
data_LiF
_symmetry_space_group_name_H-M   'P 1'
_cell_length_a   9.45191440
_cell_length_b   6.46633867
_cell_length_c   8.98882208
_cell_angle_alpha   90.00000000
_cell_angle_beta   90.00000000
_cell_angle_gamma   90.00000000
_symmetry_Int_Tables_number   1
_chemical_formula_structural   LiF
_chemical_formula_sum   'Li14 F14'
_cell_volume   549.39032979
_cell_formula_units_Z   14
loop_
 _symmetry_equiv_pos_site_id
 _symmetry_equiv_pos_as_xyz
  1  'x, y, z'
loop_
 _atom_site_type_symbol
 _atom_site_label
 _atom_site_symmetry_multiplicity
 _atom_site_fract_x
 _atom_site_fract_y
 _atom_site_fract_z
 _atom_site_occupancy
  F  F0  1  0.95318804  0.36868365  0.61698194  1
  F  F1  1  -0.95318804  -0.36868365  0.61698194  1
  F  F2  1  -0.45318804  0.86868365  -0.61698194  1
  F  F3  1  1.45318804  0.13131635  -0.61698194  1
  F  F4  1  -0.95318804  -0.36868365  -0.61698194  1
  F  F5  1  0.95318804  0.36868365  -0.61698194  1
  F  F6  1  1.45318804  0.13131635  0.61698194  1
  F  F7  1  -0.45318804  0.86868365  0.61698194  1
  F  F8  1  0.00000000  0.50000000  0.00000000  1
  F  F9  1  0.50000000  0.00000000  0.00000000  1
  F  F10  1  0.00000000  0.50000000  0.32509262  1
  F  F11  1  0.50000000  0.00000000  0.67490738  1
  F  F12  1  0.00000000  0.50000000  0.67490738  1
  F  F13  1  0.50000000  0.00000000  0.32509262  1
  Li  Li14  1  0.68595294  0.54608742  0.14794900  1
  Li  Li15  1  0.31404706  0.45391258  0.14794900  1
  Li  Li16  1  0.81404706  0.04608742  0.85205100  1
  Li  Li17  1  0.18595294  0.95391258  0.85205100  1
  Li  Li18  1  0.31404706  0.45391258  0.85205100  1
  Li  Li19  1  0.68595294  0.54608742  0.85205100  1
  Li  Li20  1  0.18595294  0.95391258  0.14794900  1
  Li  Li21  1  0.81404706  0.04608742  0.14794900  1
  Li  Li22  1  0.00000000  0.50000000  0.50000000  1
  Li  Li23  1  0.50000000  0.00000000  0.50000000  1
  Li  Li24  1  0.39504504  0.44286624  0.00000000  1
  Li  Li25  1  0.60495496  0.55713376  -0.00000000  1
  Li  Li26  1  0.10495496  0.94286624  0.00000000  1
  Li  Li27  1  0.89504504  0.05713376  -0.00000000  1
