# generated using pymatgen
data_Li4TeF2
_symmetry_space_group_name_H-M   'P 1'
_cell_length_a   13.77317006
_cell_length_b   13.77317006
_cell_length_c   15.01192073
_cell_angle_alpha   90.00000000
_cell_angle_beta   90.00000000
_cell_angle_gamma   90.00000000
_symmetry_Int_Tables_number   1
_chemical_formula_structural   Li4TeF2
_chemical_formula_sum   'Li96 Te24 F48'
_cell_volume   2847.76456891
_cell_formula_units_Z   24
loop_
 _symmetry_equiv_pos_site_id
 _symmetry_equiv_pos_as_xyz
  1  'x, y, z'
loop_
 _atom_site_type_symbol
 _atom_site_label
 _atom_site_symmetry_multiplicity
 _atom_site_fract_x
 _atom_site_fract_y
 _atom_site_fract_z
 _atom_site_occupancy
  F  F0  1  0.10322432  0.50000000  0.35069862  1
  F  F1  1  0.89677568  0.50000000  0.35069862  1
  F  F2  1  0.50000000  0.10322432  0.35069862  1
  F  F3  1  0.50000000  0.89677568  0.35069862  1
  F  F4  1  0.89677568  0.50000000  0.64930138  1
  F  F5  1  0.10322432  0.50000000  0.64930138  1
  F  F6  1  0.50000000  0.10322432  0.64930138  1
  F  F7  1  0.50000000  0.89677568  0.64930138  1
  F  F8  1  0.73592104  0.77278121  0.92867439  1
  F  F9  1  -0.73592104  -0.77278121  0.92867439  1
  F  F10  1  -0.77278121  0.73592104  0.92867439  1
  F  F11  1  0.77278121  -0.73592104  0.92867439  1
  F  F12  1  -0.73592104  0.77278121  -0.92867439  1
  F  F13  1  0.73592104  -0.77278121  -0.92867439  1
  F  F14  1  0.77278121  0.73592104  -0.92867439  1
  F  F15  1  -0.77278121  -0.73592104  -0.92867439  1
  F  F16  1  -0.73592104  -0.77278121  -0.92867439  1
  F  F17  1  0.73592104  0.77278121  -0.92867439  1
  F  F18  1  0.77278121  -0.73592104  -0.92867439  1
  F  F19  1  -0.77278121  0.73592104  -0.92867439  1
  F  F20  1  0.73592104  -0.77278121  0.92867439  1
  F  F21  1  -0.73592104  0.77278121  0.92867439  1
  F  F22  1  -0.77278121  -0.73592104  0.92867439  1
  F  F23  1  0.77278121  0.73592104  0.92867439  1
  F  F24  1  0.69889360  0.69889360  0.96679136  1
  F  F25  1  0.30110640  0.30110640  0.96679136  1
  F  F26  1  0.30110640  0.69889360  0.96679136  1
  F  F27  1  0.69889360  0.30110640  0.96679136  1
  F  F28  1  0.30110640  0.69889360  0.03320864  1
  F  F29  1  0.69889360  0.30110640  0.03320864  1
  F  F30  1  0.69889360  0.69889360  0.03320864  1
  F  F31  1  0.30110640  0.30110640  0.03320864  1
  F  F32  1  0.00000000  0.50000000  0.50000000  1
  F  F33  1  0.50000000  0.00000000  0.50000000  1
  F  F34  1  0.00000000  0.00000000  0.00000000  1
  F  F35  1  0.21554302  0.21554302  0.66619084  1
  F  F36  1  0.78445698  0.78445698  0.66619084  1
  F  F37  1  0.78445698  0.21554302  0.66619084  1
  F  F38  1  0.21554302  0.78445698  0.66619084  1
  F  F39  1  0.78445698  0.21554302  0.33380916  1
  F  F40  1  0.21554302  0.78445698  0.33380916  1
  F  F41  1  0.21554302  0.21554302  0.33380916  1
  F  F42  1  0.78445698  0.78445698  0.33380916  1
  F  F43  1  0.00000000  0.00000000  0.21013111  1
  F  F44  1  0.00000000  0.00000000  0.78986889  1
  F  F45  1  0.00000000  0.00000000  0.28166086  1
  F  F46  1  0.00000000  0.00000000  0.71833914  1
  F  F47  1  0.50000000  0.50000000  0.50000000  1
  Li  Li48  1  0.40054609  0.31427553  0.00000000  1
  Li  Li49  1  0.59945391  0.68572447  0.00000000  1
  Li  Li50  1  0.68572447  0.40054609  0.00000000  1
  Li  Li51  1  0.31427553  0.59945391  0.00000000  1
  Li  Li52  1  0.59945391  0.31427553  0.00000000  1
  Li  Li53  1  0.40054609  0.68572447  0.00000000  1
  Li  Li54  1  0.31427553  0.40054609  0.00000000  1
  Li  Li55  1  0.68572447  0.59945391  0.00000000  1
  Li  Li56  1  0.00000000  0.50000000  0.85057155  1
  Li  Li57  1  0.50000000  0.00000000  0.85057155  1
  Li  Li58  1  0.00000000  0.50000000  0.14942845  1
  Li  Li59  1  0.50000000  0.00000000  0.14942845  1
  Li  Li60  1  0.73805050  0.18750867  0.17177449  1
  Li  Li61  1  0.26194950  0.81249133  0.17177449  1
  Li  Li62  1  0.81249133  0.73805050  0.17177449  1
  Li  Li63  1  0.18750867  0.26194950  0.17177449  1
  Li  Li64  1  0.26194950  0.18750867  0.82822551  1
  Li  Li65  1  0.73805050  0.81249133  0.82822551  1
  Li  Li66  1  0.18750867  0.73805050  0.82822551  1
  Li  Li67  1  0.81249133  0.26194950  0.82822551  1
  Li  Li68  1  0.26194950  0.81249133  0.82822551  1
  Li  Li69  1  0.73805050  0.18750867  0.82822551  1
  Li  Li70  1  0.18750867  0.26194950  0.82822551  1
  Li  Li71  1  0.81249133  0.73805050  0.82822551  1
  Li  Li72  1  0.73805050  0.81249133  0.17177449  1
  Li  Li73  1  0.26194950  0.18750867  0.17177449  1
  Li  Li74  1  0.81249133  0.26194950  0.17177449  1
  Li  Li75  1  0.18750867  0.73805050  0.17177449  1
  Li  Li76  1  0.85620735  0.68483353  0.57410813  1
  Li  Li77  1  0.14379265  0.31516647  0.57410813  1
  Li  Li78  1  0.31516647  0.85620735  0.57410813  1
  Li  Li79  1  0.68483353  0.14379265  0.57410813  1
  Li  Li80  1  0.14379265  0.68483353  0.42589187  1
  Li  Li81  1  0.85620735  0.31516647  0.42589187  1
  Li  Li82  1  0.68483353  0.85620735  0.42589187  1
  Li  Li83  1  0.31516647  0.14379265  0.42589187  1
  Li  Li84  1  0.14379265  0.31516647  0.42589187  1
  Li  Li85  1  0.85620735  0.68483353  0.42589187  1
  Li  Li86  1  0.68483353  0.14379265  0.42589187  1
  Li  Li87  1  0.31516647  0.85620735  0.42589187  1
  Li  Li88  1  0.85620735  0.31516647  0.57410813  1
  Li  Li89  1  0.14379265  0.68483353  0.57410813  1
  Li  Li90  1  0.31516647  0.14379265  0.57410813  1
  Li  Li91  1  0.68483353  0.85620735  0.57410813  1
  Li  Li92  1  0.29197136  0.82620236  0.31421516  1
  Li  Li93  1  0.70802864  0.17379764  0.31421516  1
  Li  Li94  1  0.17379764  0.29197136  0.31421516  1
  Li  Li95  1  0.82620236  0.70802864  0.31421516  1
  Li  Li96  1  0.70802864  0.82620236  0.68578484  1
  Li  Li97  1  0.29197136  0.17379764  0.68578484  1
  Li  Li98  1  0.82620236  0.29197136  0.68578484  1
  Li  Li99  1  0.17379764  0.70802864  0.68578484  1
  Li  Li100  1  0.70802864  0.17379764  0.68578484  1
  Li  Li101  1  0.29197136  0.82620236  0.68578484  1
  Li  Li102  1  0.82620236  0.70802864  0.68578484  1
  Li  Li103  1  0.17379764  0.29197136  0.68578484  1
  Li  Li104  1  0.29197136  0.17379764  0.31421516  1
  Li  Li105  1  0.70802864  0.82620236  0.31421516  1
  Li  Li106  1  0.17379764  0.70802864  0.31421516  1
  Li  Li107  1  0.82620236  0.29197136  0.31421516  1
  Li  Li108  1  0.15813582  0.50000000  0.00000000  1
  Li  Li109  1  0.84186418  0.50000000  -0.00000000  1
  Li  Li110  1  0.50000000  0.15813582  0.00000000  1
  Li  Li111  1  0.50000000  0.84186418  0.00000000  1
  Li  Li112  1  0.94091026  0.94091026  0.28957505  1
  Li  Li113  1  0.05908974  0.05908974  0.28957505  1
  Li  Li114  1  0.05908974  0.94091026  0.28957505  1
  Li  Li115  1  0.94091026  0.05908974  0.28957505  1
  Li  Li116  1  0.05908974  0.94091026  0.71042495  1
  Li  Li117  1  0.94091026  0.05908974  0.71042495  1
  Li  Li118  1  0.94091026  0.94091026  0.71042495  1
  Li  Li119  1  0.05908974  0.05908974  0.71042495  1
  Li  Li120  1  0.84763277  -0.00000000  0.35103160  1
  Li  Li121  1  0.15236723  0.00000000  0.35103160  1
  Li  Li122  1  0.00000000  0.84763277  0.35103160  1
  Li  Li123  1  0.00000000  0.15236723  0.35103160  1
  Li  Li124  1  0.15236723  0.00000000  0.64896840  1
  Li  Li125  1  0.84763277  -0.00000000  0.64896840  1
  Li  Li126  1  0.00000000  0.84763277  0.64896840  1
  Li  Li127  1  0.00000000  0.15236723  0.64896840  1
  Li  Li128  1  0.69301395  0.91716266  0.12088417  1
  Li  Li129  1  0.30698605  0.08283734  0.12088417  1
  Li  Li130  1  0.08283734  0.69301395  0.12088417  1
  Li  Li131  1  0.91716266  0.30698605  0.12088417  1
  Li  Li132  1  0.30698605  0.91716266  0.87911583  1
  Li  Li133  1  0.69301395  0.08283734  0.87911583  1
  Li  Li134  1  0.91716266  0.69301395  0.87911583  1
  Li  Li135  1  0.08283734  0.30698605  0.87911583  1
  Li  Li136  1  0.30698605  0.08283734  0.87911583  1
  Li  Li137  1  0.69301395  0.91716266  0.87911583  1
  Li  Li138  1  0.91716266  0.30698605  0.87911583  1
  Li  Li139  1  0.08283734  0.69301395  0.87911583  1
  Li  Li140  1  0.69301395  0.08283734  0.12088417  1
  Li  Li141  1  0.30698605  0.91716266  0.12088417  1
  Li  Li142  1  0.08283734  0.30698605  0.12088417  1
  Li  Li143  1  0.91716266  0.69301395  0.12088417  1
  Te  Te144  1  0.35160309  0.50000000  0.00000000  1
  Te  Te145  1  0.64839691  0.50000000  0.00000000  1
  Te  Te146  1  0.50000000  0.35160309  0.00000000  1
  Te  Te147  1  0.50000000  0.64839691  0.00000000  1
  Te  Te148  1  0.08082276  0.41400305  0.63227649  1
  Te  Te149  1  0.91917724  0.58599695  0.63227649  1
  Te  Te150  1  0.58599695  0.08082276  0.63227649  1
  Te  Te151  1  0.41400305  0.91917724  0.63227649  1
  Te  Te152  1  0.91917724  0.41400305  0.36772351  1
  Te  Te153  1  0.08082276  0.58599695  0.36772351  1
  Te  Te154  1  0.41400305  0.08082276  0.36772351  1
  Te  Te155  1  0.58599695  0.91917724  0.36772351  1
  Te  Te156  1  0.91917724  0.58599695  0.36772351  1
  Te  Te157  1  0.08082276  0.41400305  0.36772351  1
  Te  Te158  1  0.41400305  0.91917724  0.36772351  1
  Te  Te159  1  0.58599695  0.08082276  0.36772351  1
  Te  Te160  1  0.08082276  0.58599695  0.63227649  1
  Te  Te161  1  0.91917724  0.41400305  0.63227649  1
  Te  Te162  1  0.58599695  0.91917724  0.63227649  1
  Te  Te163  1  0.41400305  0.08082276  0.63227649  1
  Te  Te164  1  0.84816730  -0.00000000  0.50000000  1
  Te  Te165  1  0.15183270  0.00000000  0.50000000  1
  Te  Te166  1  0.00000000  0.84816730  0.50000000  1
  Te  Te167  1  0.00000000  0.15183270  0.50000000  1
