# generated using pymatgen
data_LiCaF3
_symmetry_space_group_name_H-M   'P 1'
_cell_length_a   9.73004698
_cell_length_b   9.73004698
_cell_length_c   16.26433852
_cell_angle_alpha   90.00000000
_cell_angle_beta   90.00000000
_cell_angle_gamma   120.00000000
_symmetry_Int_Tables_number   1
_chemical_formula_structural   LiCaF3
_chemical_formula_sum   'Li18 Ca18 F54'
_cell_volume   1333.51194644
_cell_formula_units_Z   18
loop_
 _symmetry_equiv_pos_site_id
 _symmetry_equiv_pos_as_xyz
  1  'x, y, z'
loop_
 _atom_site_type_symbol
 _atom_site_label
 _atom_site_symmetry_multiplicity
 _atom_site_fract_x
 _atom_site_fract_y
 _atom_site_fract_z
 _atom_site_occupancy
  Ca  Ca0  1  0.46981479  0.16530262  0.31052350  1
  Ca  Ca1  1  -0.16530262  0.30451217  0.31052350  1
  Ca  Ca2  1  -0.30451217  -0.46981479  0.31052350  1
  Ca  Ca3  1  0.46981479  0.16530262  -0.31052350  1
  Ca  Ca4  1  -0.16530262  0.30451217  -0.31052350  1
  Ca  Ca5  1  -0.30451217  -0.46981479  -0.31052350  1
  Ca  Ca6  1  0.16530262  0.46981479  -0.31052350  1
  Ca  Ca7  1  0.30451217  -0.16530262  -0.31052350  1
  Ca  Ca8  1  -0.46981479  -0.30451217  -0.31052350  1
  Ca  Ca9  1  0.16530262  0.46981479  0.31052350  1
  Ca  Ca10  1  0.30451217  -0.16530262  0.31052350  1
  Ca  Ca11  1  -0.46981479  -0.30451217  0.31052350  1
  Ca  Ca12  1  0.38482795  0.00000000  0.19528217  1
  Ca  Ca13  1  0.00000000  0.38482795  0.19528217  1
  Ca  Ca14  1  0.61517205  0.61517205  0.19528217  1
  Ca  Ca15  1  0.38482795  0.00000000  0.80471783  1
  Ca  Ca16  1  0.00000000  0.38482795  0.80471783  1
  Ca  Ca17  1  0.61517205  0.61517205  0.80471783  1
  F  F18  1  0.92872610  0.28311280  0.50000000  1
  F  F19  1  0.71688720  0.64561330  0.50000000  1
  F  F20  1  0.35438670  0.07127390  0.50000000  1
  F  F21  1  0.28311280  0.92872610  0.50000000  1
  F  F22  1  0.64561330  0.71688720  0.50000000  1
  F  F23  1  0.07127390  0.35438670  0.50000000  1
  F  F24  1  0.33333333  0.66666667  0.75385704  1
  F  F25  1  0.33333333  0.66666667  0.24614296  1
  F  F26  1  0.66666667  0.33333333  0.24614296  1
  F  F27  1  0.66666667  0.33333333  0.75385704  1
  F  F28  1  0.00000000  0.00000000  0.81926226  1
  F  F29  1  0.00000000  0.00000000  0.18073774  1
  F  F30  1  0.39081770  0.69783934  0.11347187  1
  F  F31  1  0.30216066  0.69297837  0.11347187  1
  F  F32  1  0.30702163  0.60918230  0.11347187  1
  F  F33  1  0.39081770  0.69783934  0.88652813  1
  F  F34  1  0.30216066  0.69297837  0.88652813  1
  F  F35  1  0.30702163  0.60918230  0.88652813  1
  F  F36  1  0.69783934  0.39081770  0.88652813  1
  F  F37  1  0.69297837  0.30216066  0.88652813  1
  F  F38  1  0.60918230  0.30702163  0.88652813  1
  F  F39  1  0.69783934  0.39081770  0.11347187  1
  F  F40  1  0.69297837  0.30216066  0.11347187  1
  F  F41  1  0.60918230  0.30702163  0.11347187  1
  F  F42  1  0.80723069  0.00000000  0.56174976  1
  F  F43  1  0.00000000  0.80723069  0.56174976  1
  F  F44  1  0.19276931  0.19276931  0.56174976  1
  F  F45  1  0.80723069  0.00000000  0.43825024  1
  F  F46  1  0.00000000  0.80723069  0.43825024  1
  F  F47  1  0.19276931  0.19276931  0.43825024  1
  F  F48  1  0.53179992  0.38746792  0.39909866  1
  F  F49  1  0.61253208  0.14433201  0.39909866  1
  F  F50  1  0.85566799  0.46820008  0.39909866  1
  F  F51  1  0.53179992  0.38746792  0.60090134  1
  F  F52  1  0.61253208  0.14433201  0.60090134  1
  F  F53  1  0.85566799  0.46820008  0.60090134  1
  F  F54  1  0.38746792  0.53179992  0.60090134  1
  F  F55  1  0.14433201  0.61253208  0.60090134  1
  F  F56  1  0.46820008  0.85566799  0.60090134  1
  F  F57  1  0.38746792  0.53179992  0.39909866  1
  F  F58  1  0.14433201  0.61253208  0.39909866  1
  F  F59  1  0.46820008  0.85566799  0.39909866  1
  F  F60  1  0.00000000  0.00000000  0.04253883  1
  F  F61  1  0.00000000  0.00000000  0.95746117  1
  F  F62  1  0.26848635  0.00000000  0.12204356  1
  F  F63  1  0.00000000  0.26848635  0.12204356  1
  F  F64  1  0.73151365  0.73151365  0.12204356  1
  F  F65  1  0.26848635  0.00000000  0.87795644  1
  F  F66  1  0.00000000  0.26848635  0.87795644  1
  F  F67  1  0.73151365  0.73151365  0.87795644  1
  F  F68  1  0.33333333  0.66666667  0.85638863  1
  F  F69  1  0.33333333  0.66666667  0.14361137  1
  F  F70  1  0.66666667  0.33333333  0.14361137  1
  F  F71  1  0.66666667  0.33333333  0.85638863  1
  Li  Li72  1  0.60086222  -0.00000000  0.44735925  1
  Li  Li73  1  0.00000000  0.60086222  0.44735925  1
  Li  Li74  1  0.39913778  0.39913778  0.44735925  1
  Li  Li75  1  0.60086222  -0.00000000  0.55264075  1
  Li  Li76  1  0.00000000  0.60086222  0.55264075  1
  Li  Li77  1  0.39913778  0.39913778  0.55264075  1
  Li  Li78  1  0.54209323  -0.00000000  0.79293640  1
  Li  Li79  1  0.00000000  0.54209323  0.79293640  1
  Li  Li80  1  0.45790677  0.45790677  0.79293640  1
  Li  Li81  1  0.54209323  -0.00000000  0.20706360  1
  Li  Li82  1  0.00000000  0.54209323  0.20706360  1
  Li  Li83  1  0.45790677  0.45790677  0.20706360  1
  Li  Li84  1  0.39813939  0.00000000  0.00000000  1
  Li  Li85  1  0.00000000  0.39813939  0.00000000  1
  Li  Li86  1  0.60186061  0.60186061  0.00000000  1
  Li  Li87  1  0.71390985  0.00000000  -0.00000000  1
  Li  Li88  1  0.00000000  0.71390985  0.00000000  1
  Li  Li89  1  0.28609015  0.28609015  0.00000000  1
