# generated using pymatgen
data_LiF
_symmetry_space_group_name_H-M   'P 1'
_cell_length_a   11.57348575
_cell_length_b   6.88588565
_cell_length_c   6.75771127
_cell_angle_alpha   90.00000000
_cell_angle_beta   90.00000000
_cell_angle_gamma   90.00000000
_symmetry_Int_Tables_number   1
_chemical_formula_structural   LiF
_chemical_formula_sum   'Li24 F24'
_cell_volume   538.54701073
_cell_formula_units_Z   24
loop_
 _symmetry_equiv_pos_site_id
 _symmetry_equiv_pos_as_xyz
  1  'x, y, z'
loop_
 _atom_site_type_symbol
 _atom_site_label
 _atom_site_symmetry_multiplicity
 _atom_site_fract_x
 _atom_site_fract_y
 _atom_site_fract_z
 _atom_site_occupancy
  F  F0  1  0.70041700  0.96483059  0.63765151  1
  F  F1  1  0.79958300  0.03516941  0.13765151  1
  F  F2  1  0.29958300  0.46483059  0.36234849  1
  F  F3  1  0.20041700  0.53516941  0.86234849  1
  F  F4  1  0.29958300  0.03516941  0.36234849  1
  F  F5  1  0.20041700  0.96483059  0.86234849  1
  F  F6  1  0.70041700  0.53516941  0.63765151  1
  F  F7  1  0.79958300  0.46483059  0.13765151  1
  F  F8  1  0.33095781  0.39343766  0.28157818  1
  F  F9  1  0.16904219  0.60656234  0.78157818  1
  F  F10  1  0.66904219  0.89343766  0.71842182  1
  F  F11  1  0.83095781  0.10656234  0.21842182  1
  F  F12  1  0.66904219  0.60656234  0.71842182  1
  F  F13  1  0.83095781  0.39343766  0.21842182  1
  F  F14  1  0.33095781  0.10656234  0.28157818  1
  F  F15  1  0.16904219  0.89343766  0.78157818  1
  F  F16  1  0.38584668  0.66196690  0.03514799  1
  F  F17  1  0.11415332  0.33803310  0.53514799  1
  F  F18  1  0.61415332  0.16196690  0.96485201  1
  F  F19  1  0.88584668  0.83803310  0.46485201  1
  F  F20  1  0.61415332  0.33803310  0.96485201  1
  F  F21  1  0.88584668  0.66196690  0.46485201  1
  F  F22  1  0.38584668  0.83803310  0.03514799  1
  F  F23  1  0.11415332  0.16196690  0.53514799  1
  Li  Li24  1  0.49982318  0.97406384  0.15118613  1
  Li  Li25  1  0.00017682  -0.97406384  0.65118613  1
  Li  Li26  1  -0.49982318  1.47406384  -0.15118613  1
  Li  Li27  1  0.99982318  -0.47406384  0.34881387  1
  Li  Li28  1  -0.49982318  -0.97406384  -0.15118613  1
  Li  Li29  1  0.99982318  0.97406384  0.34881387  1
  Li  Li30  1  0.49982318  -0.47406384  0.15118613  1
  Li  Li31  1  0.00017682  1.47406384  0.65118613  1
  Li  Li32  1  0.00000000  0.00000000  0.00000000  1
  Li  Li33  1  0.50000000  -0.00000000  0.50000000  1
  Li  Li34  1  0.00000000  0.50000000  0.00000000  1
  Li  Li35  1  0.50000000  0.50000000  0.50000000  1
  Li  Li36  1  0.16949008  0.25000000  0.95211912  1
  Li  Li37  1  0.33050992  0.75000000  0.45211912  1
  Li  Li38  1  0.83050992  0.75000000  0.04788088  1
  Li  Li39  1  0.66949008  0.25000000  0.54788088  1
  Li  Li40  1  0.51139590  0.63292530  0.31062056  1
  Li  Li41  1  0.98860410  0.36707470  0.81062056  1
  Li  Li42  1  0.48860410  0.13292530  0.68937944  1
  Li  Li43  1  0.01139590  0.86707470  0.18937944  1
  Li  Li44  1  0.48860410  0.36707470  0.68937944  1
  Li  Li45  1  0.01139590  0.63292530  0.18937944  1
  Li  Li46  1  0.51139590  0.86707470  0.31062056  1
  Li  Li47  1  0.98860410  0.13292530  0.81062056  1
