# generated using pymatgen
data_LiF
_symmetry_space_group_name_H-M   'P 1'
_cell_length_a   6.38984822
_cell_length_b   14.13102264
_cell_length_c   18.56536696
_cell_angle_alpha   90.00000000
_cell_angle_beta   90.00000000
_cell_angle_gamma   90.00000000
_symmetry_Int_Tables_number   1
_chemical_formula_structural   LiF
_chemical_formula_sum   'Li56 F56'
_cell_volume   1676.36147662
_cell_formula_units_Z   56
loop_
 _symmetry_equiv_pos_site_id
 _symmetry_equiv_pos_as_xyz
  1  'x, y, z'
loop_
 _atom_site_type_symbol
 _atom_site_label
 _atom_site_symmetry_multiplicity
 _atom_site_fract_x
 _atom_site_fract_y
 _atom_site_fract_z
 _atom_site_occupancy
  F  F0  1  0.78580394  0.49202150  0.94087664  1
  F  F1  1  0.71419606  0.50797850  0.44087664  1
  F  F2  1  0.21419606  0.99202150  0.05912336  1
  F  F3  1  0.28580394  0.00797850  0.55912336  1
  F  F4  1  0.21419606  0.50797850  0.05912336  1
  F  F5  1  0.28580394  0.49202150  0.55912336  1
  F  F6  1  0.78580394  0.00797850  0.94087664  1
  F  F7  1  0.71419606  0.99202150  0.44087664  1
  F  F8  1  0.96452894  0.50835187  0.86323955  1
  F  F9  1  0.53547106  0.49164813  0.36323955  1
  F  F10  1  0.03547106  0.00835187  0.13676045  1
  F  F11  1  0.46452894  0.99164813  0.63676045  1
  F  F12  1  0.03547106  0.49164813  0.13676045  1
  F  F13  1  0.46452894  0.50835187  0.63676045  1
  F  F14  1  0.96452894  0.99164813  0.86323955  1
  F  F15  1  0.53547106  0.00835187  0.36323955  1
  F  F16  1  0.86720021  0.55586085  0.49543095  1
  F  F17  1  0.63279979  0.44413915  0.99543095  1
  F  F18  1  0.13279979  0.05586085  0.50456905  1
  F  F19  1  0.36720021  0.94413915  0.00456905  1
  F  F20  1  0.13279979  0.44413915  0.50456905  1
  F  F21  1  0.36720021  0.55586085  0.00456905  1
  F  F22  1  0.86720021  0.94413915  0.49543095  1
  F  F23  1  0.63279979  0.05586085  0.99543095  1
  F  F24  1  0.14522427  0.83904973  0.68097012  1
  F  F25  1  0.35477573  0.16095027  0.18097012  1
  F  F26  1  0.85477573  0.33904973  0.31902988  1
  F  F27  1  0.64522427  0.66095027  0.81902988  1
  F  F28  1  0.85477573  0.16095027  0.31902988  1
  F  F29  1  0.64522427  0.83904973  0.81902988  1
  F  F30  1  0.14522427  0.66095027  0.68097012  1
  F  F31  1  0.35477573  0.33904973  0.18097012  1
  F  F32  1  0.49158423  0.32886392  0.21298139  1
  F  F33  1  0.00841577  0.67113608  0.71298139  1
  F  F34  1  0.50841577  0.82886392  0.78701861  1
  F  F35  1  0.99158423  0.17113608  0.28701861  1
  F  F36  1  0.50841577  0.67113608  0.78701861  1
  F  F37  1  0.99158423  0.32886392  0.28701861  1
  F  F38  1  0.49158423  0.17113608  0.21298139  1
  F  F39  1  0.00841577  0.82886392  0.71298139  1
  F  F40  1  0.05762069  0.43713129  0.80106233  1
  F  F41  1  0.44237931  0.56286871  0.30106233  1
  F  F42  1  0.94237931  0.93713129  0.19893767  1
  F  F43  1  0.55762069  0.06286871  0.69893767  1
  F  F44  1  0.94237931  0.56286871  0.19893767  1
  F  F45  1  0.55762069  0.43713129  0.69893767  1
  F  F46  1  0.05762069  0.06286871  0.80106233  1
  F  F47  1  0.44237931  0.93713129  0.30106233  1
  F  F48  1  0.98508607  0.97675421  0.79726020  1
  F  F49  1  0.51491393  0.02324579  0.29726020  1
  F  F50  1  0.01491393  0.47675421  0.20273980  1
  F  F51  1  0.48508607  0.52324579  0.70273980  1
  F  F52  1  0.01491393  0.02324579  0.20273980  1
  F  F53  1  0.48508607  0.97675421  0.70273980  1
  F  F54  1  0.98508607  0.52324579  0.79726020  1
  F  F55  1  0.51491393  0.47675421  0.29726020  1
  Li  Li56  1  0.20099672  0.55856440  0.74243904  1
  Li  Li57  1  0.29900328  -0.55856440  1.24243904  1
  Li  Li58  1  -0.20099672  1.05856440  -0.74243904  1
  Li  Li59  1  0.70099672  -0.05856440  -0.24243904  1
  Li  Li60  1  -0.20099672  -0.55856440  -0.74243904  1
  Li  Li61  1  0.70099672  0.55856440  -0.24243904  1
  Li  Li62  1  0.20099672  -0.05856440  0.74243904  1
  Li  Li63  1  0.29900328  1.05856440  1.24243904  1
  Li  Li64  1  0.00000000  0.00000000  0.50000000  1
  Li  Li65  1  0.50000000  0.00000000  -0.00000000  1
  Li  Li66  1  0.00000000  0.50000000  0.50000000  1
  Li  Li67  1  0.50000000  0.50000000  -0.00000000  1
  Li  Li68  1  0.00000000  0.00000000  0.00000000  1
  Li  Li69  1  0.50000000  0.00000000  0.50000000  1
  Li  Li70  1  0.00000000  0.50000000  -0.00000000  1
  Li  Li71  1  0.50000000  0.50000000  0.50000000  1
  Li  Li72  1  0.30620765  0.05551412  0.91035520  1
  Li  Li73  1  0.19379235  0.94448588  0.41035520  1
  Li  Li74  1  0.69379235  0.55551412  0.08964480  1
  Li  Li75  1  0.80620765  0.44448588  0.58964480  1
  Li  Li76  1  0.69379235  0.94448588  0.08964480  1
  Li  Li77  1  0.80620765  0.05551412  0.58964480  1
  Li  Li78  1  0.30620765  0.44448588  0.91035520  1
  Li  Li79  1  0.19379235  0.55551412  0.41035520  1
  Li  Li80  1  0.16216214  0.25000000  0.65110437  1
  Li  Li81  1  0.33783786  0.75000000  0.15110437  1
  Li  Li82  1  0.83783786  0.75000000  0.34889563  1
  Li  Li83  1  0.66216214  0.25000000  0.84889563  1
  Li  Li84  1  0.88699826  0.25000000  0.93935882  1
  Li  Li85  1  0.61300174  0.75000000  0.43935882  1
  Li  Li86  1  0.11300174  0.75000000  0.06064118  1
  Li  Li87  1  0.38699826  0.25000000  0.56064118  1
  Li  Li88  1  0.39461526  0.25000000  0.10620267  1
  Li  Li89  1  0.10538474  0.75000000  0.60620267  1
  Li  Li90  1  0.60538474  0.75000000  0.89379733  1
  Li  Li91  1  0.89461526  0.25000000  0.39379733  1
  Li  Li92  1  0.96956659  0.25000000  0.25228669  1
  Li  Li93  1  0.53043341  0.75000000  0.75228669  1
  Li  Li94  1  0.03043341  0.75000000  0.74771331  1
  Li  Li95  1  0.46956659  0.25000000  0.24771331  1
  Li  Li96  1  0.28838558  0.42642987  0.81594764  1
  Li  Li97  1  0.21161442  0.57357013  0.31594764  1
  Li  Li98  1  0.71161442  0.92642987  0.18405236  1
  Li  Li99  1  0.78838558  0.07357013  0.68405236  1
  Li  Li100  1  0.71161442  0.57357013  0.18405236  1
  Li  Li101  1  0.78838558  0.42642987  0.68405236  1
  Li  Li102  1  0.28838558  0.07357013  0.81594764  1
  Li  Li103  1  0.21161442  0.92642987  0.31594764  1
  Li  Li104  1  0.40372627  0.39747256  0.39089313  1
  Li  Li105  1  0.09627373  0.60252744  0.89089313  1
  Li  Li106  1  0.59627373  0.89747256  0.60910687  1
  Li  Li107  1  0.90372627  0.10252744  0.10910687  1
  Li  Li108  1  0.59627373  0.60252744  0.60910687  1
  Li  Li109  1  0.90372627  0.39747256  0.10910687  1
  Li  Li110  1  0.40372627  0.10252744  0.39089313  1
  Li  Li111  1  0.09627373  0.89747256  0.89089313  1
