# generated using pymatgen
data_Li2Y2P3Se
_symmetry_space_group_name_H-M   'P 1'
_cell_length_a   5.31598858
_cell_length_b   5.61630872
_cell_length_c   7.10063642
_cell_angle_alpha   93.83907837
_cell_angle_beta   98.04037143
_cell_angle_gamma   104.87777931
_symmetry_Int_Tables_number   1
_chemical_formula_structural   Li2Y2P3Se
_chemical_formula_sum   'Li2 Y2 P3 Se1'
_cell_volume   201.70155405
_cell_formula_units_Z   1
loop_
 _symmetry_equiv_pos_site_id
 _symmetry_equiv_pos_as_xyz
  1  'x, y, z'
loop_
 _atom_site_type_symbol
 _atom_site_label
 _atom_site_symmetry_multiplicity
 _atom_site_fract_x
 _atom_site_fract_y
 _atom_site_fract_z
 _atom_site_occupancy
  Se  Se0  1  0.00000000  0.00000000  0.00000000  1
  P  P1  1  0.50000000  0.50000000  0.50000000  1
  P  P2  1  0.50000000  0.50000000  0.00000000  1
  P  P3  1  0.50000000  0.00000000  0.50000000  1
  Li  Li4  1  0.00000000  0.50000000  0.50000000  1
  Li  Li5  1  0.88938142  0.33817009  0.99443195  1
  Y  Y6  1  0.18727477  0.46544112  0.29129607  1
  Y  Y7  1  0.27141536  0.78936134  0.36645651  1
