# generated using pymatgen
data_Li2YMoP2
_symmetry_space_group_name_H-M   'P 1'
_cell_length_a   4.86400318
_cell_length_b   5.04174042
_cell_length_c   7.06955719
_cell_angle_alpha   95.41936997
_cell_angle_beta   101.55143565
_cell_angle_gamma   110.54852473
_symmetry_Int_Tables_number   1
_chemical_formula_structural   Li2YMoP2
_chemical_formula_sum   'Li2 Y1 Mo1 P2'
_cell_volume   156.46346531
_cell_formula_units_Z   1
loop_
 _symmetry_equiv_pos_site_id
 _symmetry_equiv_pos_as_xyz
  1  'x, y, z'
loop_
 _atom_site_type_symbol
 _atom_site_label
 _atom_site_symmetry_multiplicity
 _atom_site_fract_x
 _atom_site_fract_y
 _atom_site_fract_z
 _atom_site_occupancy
  P  P0  1  0.00000000  0.00000000  0.00000000  1
  P  P1  1  0.33300000  0.66700000  0.25000000  1
  Mo  Mo2  1  0.66700000  0.33300000  0.50000000  1
  Li  Li3  1  0.00000000  0.00000000  0.75000000  1
  Li  Li4  1  0.98989233  0.57705668  0.37282612  1
  Y  Y5  1  0.83315375  0.12553123  0.48983012  1
