# generated using pymatgen
data_LiF
_symmetry_space_group_name_H-M   'P 1'
_cell_length_a   17.90606891
_cell_length_b   8.57386498
_cell_length_c   9.06729770
_cell_angle_alpha   90.00000000
_cell_angle_beta   90.00000000
_cell_angle_gamma   90.00000000
_symmetry_Int_Tables_number   1
_chemical_formula_structural   LiF
_chemical_formula_sum   'Li46 F46'
_cell_volume   1392.04978027
_cell_formula_units_Z   46
loop_
 _symmetry_equiv_pos_site_id
 _symmetry_equiv_pos_as_xyz
  1  'x, y, z'
loop_
 _atom_site_type_symbol
 _atom_site_label
 _atom_site_symmetry_multiplicity
 _atom_site_fract_x
 _atom_site_fract_y
 _atom_site_fract_z
 _atom_site_occupancy
  F  F0  1  0.33990741  0.33152818  0.37219990  1
  F  F1  1  0.66009259  0.66847182  0.37219990  1
  F  F2  1  0.16009259  0.83152818  0.62780010  1
  F  F3  1  0.83990741  0.16847182  0.62780010  1
  F  F4  1  0.66009259  0.66847182  0.62780010  1
  F  F5  1  0.33990741  0.33152818  0.62780010  1
  F  F6  1  0.83990741  0.16847182  0.37219990  1
  F  F7  1  0.16009259  0.83152818  0.37219990  1
  F  F8  1  0.56145987  0.03015327  -0.00000000  1
  F  F9  1  0.43854013  0.96984673  0.00000000  1
  F  F10  1  0.93854013  0.53015327  -0.00000000  1
  F  F11  1  0.06145987  0.46984673  0.00000000  1
  F  F12  1  0.00000000  0.50000000  0.50000000  1
  F  F13  1  0.50000000  -0.00000000  0.50000000  1
  F  F14  1  0.25332363  0.14491766  0.73952219  1
  F  F15  1  0.74667637  0.85508234  0.73952219  1
  F  F16  1  0.24667637  0.64491766  0.26047781  1
  F  F17  1  0.75332363  0.35508234  0.26047781  1
  F  F18  1  0.74667637  0.85508234  0.26047781  1
  F  F19  1  0.25332363  0.14491766  0.26047781  1
  F  F20  1  0.75332363  0.35508234  0.73952219  1
  F  F21  1  0.24667637  0.64491766  0.73952219  1
  F  F22  1  0.20470540  0.50892289  0.78237563  1
  F  F23  1  0.79529460  0.49107711  0.78237563  1
  F  F24  1  0.29529460  0.00892289  0.21762437  1
  F  F25  1  0.70470540  0.99107711  0.21762437  1
  F  F26  1  0.79529460  0.49107711  0.21762437  1
  F  F27  1  0.20470540  0.50892289  0.21762437  1
  F  F28  1  0.70470540  0.99107711  0.78237563  1
  F  F29  1  0.29529460  0.00892289  0.78237563  1
  F  F30  1  0.00000000  0.50000000  0.41736716  1
  F  F31  1  0.50000000  -0.00000000  0.58263284  1
  F  F32  1  0.00000000  0.50000000  0.58263284  1
  F  F33  1  0.50000000  -0.00000000  0.41736716  1
  F  F34  1  0.07187825  0.42348573  0.66484334  1
  F  F35  1  0.92812175  0.57651427  0.66484334  1
  F  F36  1  0.42812175  0.92348573  0.33515666  1
  F  F37  1  0.57187825  0.07651427  0.33515666  1
  F  F38  1  0.92812175  0.57651427  0.33515666  1
  F  F39  1  0.07187825  0.42348573  0.33515666  1
  F  F40  1  0.57187825  0.07651427  0.66484334  1
  F  F41  1  0.42812175  0.92348573  0.66484334  1
  F  F42  1  0.00000000  0.50000000  0.31443890  1
  F  F43  1  0.50000000  -0.00000000  0.68556110  1
  F  F44  1  0.00000000  0.50000000  0.68556110  1
  F  F45  1  0.50000000  -0.00000000  0.31443890  1
  Li  Li46  1  0.78047961  0.81373470  0.00000000  1
  Li  Li47  1  0.21952039  0.18626530  0.00000000  1
  Li  Li48  1  0.71952039  0.31373470  -0.00000000  1
  Li  Li49  1  0.28047961  0.68626530  -0.00000000  1
  Li  Li50  1  0.70499960  0.38391125  0.80352279  1
  Li  Li51  1  -0.70499960  -0.38391125  0.80352279  1
  Li  Li52  1  -0.20499960  0.88391125  -0.80352279  1
  Li  Li53  1  1.20499960  0.11608875  -0.80352279  1
  Li  Li54  1  -0.70499960  -0.38391125  -0.80352279  1
  Li  Li55  1  0.70499960  0.38391125  -0.80352279  1
  Li  Li56  1  1.20499960  0.11608875  0.80352279  1
  Li  Li57  1  -0.20499960  0.88391125  0.80352279  1
  Li  Li58  1  0.10261437  0.94790183  0.34092557  1
  Li  Li59  1  0.89738563  0.05209817  0.34092557  1
  Li  Li60  1  0.39738563  0.44790183  0.65907443  1
  Li  Li61  1  0.60261437  0.55209817  0.65907443  1
  Li  Li62  1  0.89738563  0.05209817  0.65907443  1
  Li  Li63  1  0.10261437  0.94790183  0.65907443  1
  Li  Li64  1  0.60261437  0.55209817  0.34092557  1
  Li  Li65  1  0.39738563  0.44790183  0.34092557  1
  Li  Li66  1  0.49769437  0.72151349  0.73655882  1
  Li  Li67  1  0.50230563  0.27848651  0.73655882  1
  Li  Li68  1  0.00230563  0.22151349  0.26344118  1
  Li  Li69  1  0.99769437  0.77848651  0.26344118  1
  Li  Li70  1  0.50230563  0.27848651  0.26344118  1
  Li  Li71  1  0.49769437  0.72151349  0.26344118  1
  Li  Li72  1  0.99769437  0.77848651  0.73655882  1
  Li  Li73  1  0.00230563  0.22151349  0.73655882  1
  Li  Li74  1  0.66015524  0.49208107  0.42644061  1
  Li  Li75  1  0.33984476  0.50791893  0.42644061  1
  Li  Li76  1  0.83984476  0.99208107  0.57355939  1
  Li  Li77  1  0.16015524  0.00791893  0.57355939  1
  Li  Li78  1  0.33984476  0.50791893  0.57355939  1
  Li  Li79  1  0.66015524  0.49208107  0.57355939  1
  Li  Li80  1  0.16015524  0.00791893  0.42644061  1
  Li  Li81  1  0.83984476  0.99208107  0.42644061  1
  Li  Li82  1  0.00000000  0.00000000  0.50000000  1
  Li  Li83  1  0.50000000  0.50000000  0.50000000  1
  Li  Li84  1  0.14489195  0.96169311  0.90893307  1
  Li  Li85  1  0.85510805  0.03830689  0.90893307  1
  Li  Li86  1  0.35510805  0.46169311  0.09106693  1
  Li  Li87  1  0.64489195  0.53830689  0.09106693  1
  Li  Li88  1  0.85510805  0.03830689  0.09106693  1
  Li  Li89  1  0.14489195  0.96169311  0.09106693  1
  Li  Li90  1  0.64489195  0.53830689  0.90893307  1
  Li  Li91  1  0.35510805  0.46169311  0.90893307  1
