# generated using pymatgen
data_LiCaF3
_symmetry_space_group_name_H-M   'P 1'
_cell_length_a   16.20059241
_cell_length_b   16.20059241
_cell_length_c   5.62825910
_cell_angle_alpha   90.00000000
_cell_angle_beta   90.00000000
_cell_angle_gamma   120.00000000
_symmetry_Int_Tables_number   1
_chemical_formula_structural   LiCaF3
_chemical_formula_sum   'Li18 Ca18 F54'
_cell_volume   1279.28263674
_cell_formula_units_Z   18
loop_
 _symmetry_equiv_pos_site_id
 _symmetry_equiv_pos_as_xyz
  1  'x, y, z'
loop_
 _atom_site_type_symbol
 _atom_site_label
 _atom_site_symmetry_multiplicity
 _atom_site_fract_x
 _atom_site_fract_y
 _atom_site_fract_z
 _atom_site_occupancy
  Ca  Ca0  1  0.33333333  0.66666667  0.79902846  1
  Ca  Ca1  1  0.33333333  0.66666667  0.20097154  1
  Ca  Ca2  1  0.00000000  0.00000000  0.00000000  1
  Ca  Ca3  1  0.13543698  0.91341602  0.64602341  1
  Ca  Ca4  1  -0.91341602  -0.77797903  0.64602341  1
  Ca  Ca5  1  0.77797903  -0.13543698  0.64602341  1
  Ca  Ca6  1  -0.91341602  -0.13543698  -0.64602341  1
  Ca  Ca7  1  0.77797903  0.91341602  -0.64602341  1
  Ca  Ca8  1  0.13543698  -0.77797903  -0.64602341  1
  Ca  Ca9  1  0.00000000  0.00000000  0.50000000  1
  Ca  Ca10  1  0.66666667  0.33333333  0.24952918  1
  Ca  Ca11  1  0.66666667  0.33333333  0.75047082  1
  Ca  Ca12  1  0.97943176  0.59535060  0.84780868  1
  Ca  Ca13  1  0.40464940  0.38408116  0.84780868  1
  Ca  Ca14  1  0.61591884  0.02056824  0.84780868  1
  Ca  Ca15  1  0.40464940  0.02056824  0.15219132  1
  Ca  Ca16  1  0.61591884  0.59535060  0.15219132  1
  Ca  Ca17  1  0.97943176  0.38408116  0.15219132  1
  F  F18  1  0.98510794  0.70101288  0.47814921  1
  F  F19  1  0.29898712  0.28409505  0.47814921  1
  F  F20  1  0.71590495  0.01489206  0.47814921  1
  F  F21  1  0.29898712  0.01489206  0.52185079  1
  F  F22  1  0.71590495  0.70101288  0.52185079  1
  F  F23  1  0.98510794  0.28409505  0.52185079  1
  F  F24  1  0.66666667  0.33333333  0.50000000  1
  F  F25  1  0.98830721  0.92509030  0.27840929  1
  F  F26  1  0.07490970  0.06321690  0.27840929  1
  F  F27  1  0.93678310  0.01169279  0.27840929  1
  F  F28  1  0.07490970  0.01169279  0.72159071  1
  F  F29  1  0.93678310  0.92509030  0.72159071  1
  F  F30  1  0.98830721  0.06321690  0.72159071  1
  F  F31  1  0.75946064  0.65413688  0.95790814  1
  F  F32  1  0.34586312  0.10532377  0.95790814  1
  F  F33  1  0.89467623  0.24053936  0.95790814  1
  F  F34  1  0.34586312  0.24053936  0.04209186  1
  F  F35  1  0.89467623  0.65413688  0.04209186  1
  F  F36  1  0.75946064  0.10532377  0.04209186  1
  F  F37  1  0.81434643  0.94484460  0.91944598  1
  F  F38  1  0.05515540  0.86950183  0.91944598  1
  F  F39  1  0.13049817  0.18565357  0.91944598  1
  F  F40  1  0.05515540  0.18565357  0.08055402  1
  F  F41  1  0.13049817  0.94484460  0.08055402  1
  F  F42  1  0.81434643  0.86950183  0.08055402  1
  F  F43  1  0.44360459  0.89595243  0.29788741  1
  F  F44  1  0.10404757  0.54765216  0.29788741  1
  F  F45  1  0.45234784  0.55639541  0.29788741  1
  F  F46  1  0.10404757  0.55639541  0.70211259  1
  F  F47  1  0.45234784  0.89595243  0.70211259  1
  F  F48  1  0.44360459  0.54765216  0.70211259  1
  F  F49  1  0.66666667  0.33333333  0.00000000  1
  F  F50  1  0.81210461  0.67404719  0.67619332  1
  F  F51  1  0.32595281  0.13805742  0.67619332  1
  F  F52  1  0.86194258  0.18789539  0.67619332  1
  F  F53  1  0.32595281  0.18789539  0.32380668  1
  F  F54  1  0.86194258  0.67404719  0.32380668  1
  F  F55  1  0.81210461  0.13805742  0.32380668  1
  F  F56  1  0.33333333  0.66666667  0.50000000  1
  F  F57  1  0.96311993  0.19620071  0.56230410  1
  F  F58  1  0.80379929  0.76691923  0.56230410  1
  F  F59  1  0.23308077  0.03688007  0.56230410  1
  F  F60  1  0.80379929  0.03688007  0.43769590  1
  F  F61  1  0.23308077  0.19620071  0.43769590  1
  F  F62  1  0.96311993  0.76691923  0.43769590  1
  F  F63  1  0.82764741  0.83146233  0.64012676  1
  F  F64  1  0.16853767  0.99618509  0.64012676  1
  F  F65  1  0.00381491  0.17235259  0.64012676  1
  F  F66  1  0.16853767  0.17235259  0.35987324  1
  F  F67  1  0.00381491  0.83146233  0.35987324  1
  F  F68  1  0.82764741  0.99618509  0.35987324  1
  F  F69  1  0.71500633  0.28499367  0.00000000  1
  F  F70  1  0.71500633  0.43001266  0.00000000  1
  F  F71  1  0.56998734  0.28499367  0.00000000  1
  Li  Li72  1  0.31305737  0.35835342  0.15329046  1
  Li  Li73  1  0.64164658  0.95470394  0.15329046  1
  Li  Li74  1  0.04529606  0.68694263  0.15329046  1
  Li  Li75  1  0.64164658  0.68694263  0.84670954  1
  Li  Li76  1  0.04529606  0.35835342  0.84670954  1
  Li  Li77  1  0.31305737  0.95470394  0.84670954  1
  Li  Li78  1  0.38592792  0.61407208  0.00000000  1
  Li  Li79  1  0.38592792  0.77185585  0.00000000  1
  Li  Li80  1  0.22814415  0.61407208  0.00000000  1
  Li  Li81  1  0.58269074  0.41730926  0.50000000  1
  Li  Li82  1  0.58269074  0.16538149  0.50000000  1
  Li  Li83  1  0.83461851  0.41730926  0.50000000  1
  Li  Li84  1  0.47882086  0.31610716  0.76420989  1
  Li  Li85  1  0.68389284  0.16271369  0.76420989  1
  Li  Li86  1  0.83728631  0.52117914  0.76420989  1
  Li  Li87  1  0.68389284  0.52117914  0.23579011  1
  Li  Li88  1  0.83728631  0.31610716  0.23579011  1
  Li  Li89  1  0.47882086  0.16271369  0.23579011  1
