# generated using pymatgen
data_LiF
_symmetry_space_group_name_H-M   'P 1'
_cell_length_a   6.01305826
_cell_length_b   9.17899438
_cell_length_c   8.15266553
_cell_angle_alpha   90.00000000
_cell_angle_beta   90.00000000
_cell_angle_gamma   90.00000000
_symmetry_Int_Tables_number   1
_chemical_formula_structural   LiF
_chemical_formula_sum   'Li24 F24'
_cell_volume   449.97681834
_cell_formula_units_Z   24
loop_
 _symmetry_equiv_pos_site_id
 _symmetry_equiv_pos_as_xyz
  1  'x, y, z'
loop_
 _atom_site_type_symbol
 _atom_site_label
 _atom_site_symmetry_multiplicity
 _atom_site_fract_x
 _atom_site_fract_y
 _atom_site_fract_z
 _atom_site_occupancy
  F  F0  1  0.36565510  0.25000000  0.30308294  1
  F  F1  1  0.13434490  0.75000000  0.80308294  1
  F  F2  1  0.63434490  0.75000000  0.69691706  1
  F  F3  1  0.86565510  0.25000000  0.19691706  1
  F  F4  1  0.71833604  0.17516601  0.44104269  1
  F  F5  1  0.78166396  0.82483399  0.94104269  1
  F  F6  1  0.28166396  0.67516601  0.55895731  1
  F  F7  1  0.21833604  0.32483399  0.05895731  1
  F  F8  1  0.28166396  0.82483399  0.55895731  1
  F  F9  1  0.21833604  0.17516601  0.05895731  1
  F  F10  1  0.71833604  0.32483399  0.44104269  1
  F  F11  1  0.78166396  0.67516601  0.94104269  1
  F  F12  1  0.22597223  0.38254713  0.09957185  1
  F  F13  1  0.27402777  0.61745287  0.59957185  1
  F  F14  1  0.77402777  0.88254713  0.90042815  1
  F  F15  1  0.72597223  0.11745287  0.40042815  1
  F  F16  1  0.77402777  0.61745287  0.90042815  1
  F  F17  1  0.72597223  0.38254713  0.40042815  1
  F  F18  1  0.22597223  0.11745287  0.09957185  1
  F  F19  1  0.27402777  0.88254713  0.59957185  1
  F  F20  1  0.97318143  0.25000000  0.43369087  1
  F  F21  1  0.52681857  0.75000000  0.93369087  1
  F  F22  1  0.02681857  0.75000000  0.56630913  1
  F  F23  1  0.47318143  0.25000000  0.06630913  1
  Li  Li24  1  0.75109635  0.37692978  0.21035755  1
  Li  Li25  1  -0.25109635  -0.37692978  0.71035755  1
  Li  Li26  1  -0.75109635  0.87692978  -0.21035755  1
  Li  Li27  1  1.25109635  0.12307022  0.28964245  1
  Li  Li28  1  -0.75109635  -0.37692978  -0.21035755  1
  Li  Li29  1  1.25109635  0.37692978  0.28964245  1
  Li  Li30  1  0.75109635  0.12307022  0.21035755  1
  Li  Li31  1  -0.25109635  0.87692978  0.71035755  1
  Li  Li32  1  0.10247683  0.47135223  0.02180216  1
  Li  Li33  1  0.39752317  0.52864777  0.52180216  1
  Li  Li34  1  0.89752317  0.97135223  0.97819784  1
  Li  Li35  1  0.60247683  0.02864777  0.47819784  1
  Li  Li36  1  0.89752317  0.52864777  0.97819784  1
  Li  Li37  1  0.60247683  0.47135223  0.47819784  1
  Li  Li38  1  0.10247683  0.02864777  0.02180216  1
  Li  Li39  1  0.39752317  0.97135223  0.52180216  1
  Li  Li40  1  0.24308514  0.62160211  0.41520046  1
  Li  Li41  1  0.25691486  0.37839789  0.91520046  1
  Li  Li42  1  0.75691486  0.12160211  0.58479954  1
  Li  Li43  1  0.74308514  0.87839789  0.08479954  1
  Li  Li44  1  0.75691486  0.37839789  0.58479954  1
  Li  Li45  1  0.74308514  0.62160211  0.08479954  1
  Li  Li46  1  0.24308514  0.87839789  0.41520046  1
  Li  Li47  1  0.25691486  0.12160211  0.91520046  1
