# generated using pymatgen
data_Li2Y2Mo(As2P)2
_symmetry_space_group_name_H-M   'P 1'
_cell_length_a   5.54610624
_cell_length_b   5.78385766
_cell_length_c   7.18766669
_cell_angle_alpha   93.47690833
_cell_angle_beta   97.73867799
_cell_angle_gamma   104.16663295
_symmetry_Int_Tables_number   1
_chemical_formula_structural   Li2Y2Mo(As2P)2
_chemical_formula_sum   'Li2 Y2 Mo1 As4 P2'
_cell_volume   220.46343748
_cell_formula_units_Z   1
loop_
 _symmetry_equiv_pos_site_id
 _symmetry_equiv_pos_as_xyz
  1  'x, y, z'
loop_
 _atom_site_type_symbol
 _atom_site_label
 _atom_site_symmetry_multiplicity
 _atom_site_fract_x
 _atom_site_fract_y
 _atom_site_fract_z
 _atom_site_occupancy
  P  P0  1  0.12500000  0.00000000  0.25000000  1
  P  P1  1  0.00000000  0.00000000  0.00000000  1
  Mo  Mo2  1  0.37500000  0.00000000  0.25000000  1
  As  As3  1  0.25000000  0.25000000  0.25000000  1
  As  As4  1  0.00000000  0.25000000  0.12500000  1
  As  As5  1  0.04270865  0.00201709  0.61573447  1
  As  As6  1  0.44058748  0.70811116  0.56606952  1
  Li  Li7  1  0.82314508  0.16346801  0.35114060  1
  Li  Li8  1  0.67568353  0.40083740  0.34254807  1
  Y  Y9  1  0.00262807  0.77239823  0.88966382  1
  Y  Y10  1  0.10713713  0.15413339  0.25000192  1
