# generated using pymatgen
data_LiF
_symmetry_space_group_name_H-M   'P 1'
_cell_length_a   8.47532035
_cell_length_b   6.73717920
_cell_length_c   9.43316204
_cell_angle_alpha   90.00000000
_cell_angle_beta   90.00000000
_cell_angle_gamma   90.00000000
_symmetry_Int_Tables_number   1
_chemical_formula_structural   LiF
_chemical_formula_sum   'Li26 F26'
_cell_volume   538.63121294
_cell_formula_units_Z   26
loop_
 _symmetry_equiv_pos_site_id
 _symmetry_equiv_pos_as_xyz
  1  'x, y, z'
loop_
 _atom_site_type_symbol
 _atom_site_label
 _atom_site_symmetry_multiplicity
 _atom_site_fract_x
 _atom_site_fract_y
 _atom_site_fract_z
 _atom_site_occupancy
  F  F0  1  0.44964702  0.40446785  -0.00000000  1
  F  F1  1  0.55035298  0.59553215  0.00000000  1
  F  F2  1  0.05035298  0.90446785  0.00000000  1
  F  F3  1  0.94964702  0.09553215  0.00000000  1
  F  F4  1  0.81670588  0.84127915  0.00000000  1
  F  F5  1  0.18329412  0.15872085  0.00000000  1
  F  F6  1  0.68329412  0.34127915  0.00000000  1
  F  F7  1  0.31670588  0.65872085  0.00000000  1
  F  F8  1  0.96699820  0.93113759  0.00000000  1
  F  F9  1  0.03300180  0.06886241  0.00000000  1
  F  F10  1  0.53300180  0.43113759  0.00000000  1
  F  F11  1  0.46699820  0.56886241  0.00000000  1
  F  F12  1  0.44532602  0.11563337  -0.00000000  1
  F  F13  1  0.55467398  0.88436663  0.00000000  1
  F  F14  1  0.05467398  0.61563337  0.00000000  1
  F  F15  1  0.94532602  0.38436663  0.00000000  1
  F  F16  1  0.67846048  0.45643040  0.61026364  1
  F  F17  1  -0.67846048  -0.45643040  0.61026364  1
  F  F18  1  -0.17846048  0.95643040  -0.61026364  1
  F  F19  1  1.17846048  0.04356960  -0.61026364  1
  F  F20  1  -0.67846048  -0.45643040  -0.61026364  1
  F  F21  1  0.67846048  0.45643040  -0.61026364  1
  F  F22  1  1.17846048  0.04356960  0.61026364  1
  F  F23  1  -0.17846048  0.95643040  0.61026364  1
  F  F24  1  0.00000000  0.50000000  0.00000000  1
  F  F25  1  0.50000000  0.00000000  0.00000000  1
  Li  Li26  1  0.95618680  0.61187589  0.18979983  1
  Li  Li27  1  0.04381320  0.38812411  0.18979983  1
  Li  Li28  1  0.54381320  0.11187589  0.81020017  1
  Li  Li29  1  0.45618680  0.88812411  0.81020017  1
  Li  Li30  1  0.04381320  0.38812411  0.81020017  1
  Li  Li31  1  0.95618680  0.61187589  0.81020017  1
  Li  Li32  1  0.45618680  0.88812411  0.18979983  1
  Li  Li33  1  0.54381320  0.11187589  0.18979983  1
  Li  Li34  1  0.29513092  0.19601167  0.00000000  1
  Li  Li35  1  0.70486908  0.80398833  0.00000000  1
  Li  Li36  1  0.20486908  0.69601167  0.00000000  1
  Li  Li37  1  0.79513092  0.30398833  0.00000000  1
  Li  Li38  1  0.21090978  0.81104158  0.81943194  1
  Li  Li39  1  0.78909022  0.18895842  0.81943194  1
  Li  Li40  1  0.28909022  0.31104158  0.18056806  1
  Li  Li41  1  0.71090978  0.68895842  0.18056806  1
  Li  Li42  1  0.78909022  0.18895842  0.18056806  1
  Li  Li43  1  0.21090978  0.81104158  0.18056806  1
  Li  Li44  1  0.71090978  0.68895842  0.81943194  1
  Li  Li45  1  0.28909022  0.31104158  0.81943194  1
  Li  Li46  1  0.00000000  0.00000000  0.50000000  1
  Li  Li47  1  0.50000000  0.50000000  0.50000000  1
  Li  Li48  1  0.00000000  0.50000000  0.29795252  1
  Li  Li49  1  0.50000000  0.00000000  0.70204748  1
  Li  Li50  1  0.00000000  0.50000000  0.70204748  1
  Li  Li51  1  0.50000000  0.00000000  0.29795252  1
