# generated using pymatgen
data_LiF
_symmetry_space_group_name_H-M   'P 1'
_cell_length_a   6.46820784
_cell_length_b   7.73495595
_cell_length_c   6.04523390
_cell_angle_alpha   90.00000000
_cell_angle_beta   90.00000000
_cell_angle_gamma   90.00000000
_symmetry_Int_Tables_number   1
_chemical_formula_structural   LiF
_chemical_formula_sum   'Li14 F14'
_cell_volume   302.45092760
_cell_formula_units_Z   14
loop_
 _symmetry_equiv_pos_site_id
 _symmetry_equiv_pos_as_xyz
  1  'x, y, z'
loop_
 _atom_site_type_symbol
 _atom_site_label
 _atom_site_symmetry_multiplicity
 _atom_site_fract_x
 _atom_site_fract_y
 _atom_site_fract_z
 _atom_site_occupancy
  F  F0  1  0.07992926  0.31461832  0.00000000  1
  F  F1  1  0.92007074  0.68538168  0.00000000  1
  F  F2  1  0.42007074  0.81461832  0.50000000  1
  F  F3  1  0.57992926  0.18538168  0.50000000  1
  F  F4  1  0.00000000  0.00000000  0.50000000  1
  F  F5  1  0.50000000  0.50000000  0.00000000  1
  F  F6  1  0.00000000  0.50000000  0.50000000  1
  F  F7  1  0.50000000  0.00000000  0.00000000  1
  F  F8  1  0.37000601  0.60398850  0.00000000  1
  F  F9  1  0.62999399  0.39601150  0.00000000  1
  F  F10  1  0.12999399  0.10398850  0.50000000  1
  F  F11  1  0.87000601  0.89601150  0.50000000  1
  F  F12  1  0.00000000  0.50000000  0.00000000  1
  F  F13  1  0.50000000  0.00000000  0.50000000  1
  Li  Li14  1  0.52368416  0.66215149  0.13620043  1
  Li  Li15  1  -0.52368416  -0.66215149  0.13620043  1
  Li  Li16  1  -0.02368416  1.16215149  0.36379957  1
  Li  Li17  1  1.02368416  -0.16215149  0.36379957  1
  Li  Li18  1  -0.52368416  -0.66215149  -0.13620043  1
  Li  Li19  1  0.52368416  0.66215149  -0.13620043  1
  Li  Li20  1  1.02368416  -0.16215149  0.63620043  1
  Li  Li21  1  -0.02368416  1.16215149  0.63620043  1
  Li  Li22  1  0.00000000  0.00000000  0.24704222  1
  Li  Li23  1  0.50000000  0.50000000  0.25295778  1
  Li  Li24  1  0.00000000  0.00000000  0.75295778  1
  Li  Li25  1  0.50000000  0.50000000  0.74704222  1
  Li  Li26  1  0.00000000  0.00000000  0.00000000  1
  Li  Li27  1  0.50000000  0.50000000  0.50000000  1
