# generated using pymatgen
data_LiF
_symmetry_space_group_name_H-M   'P 1'
_cell_length_a   14.01971409
_cell_length_b   14.01971409
_cell_length_c   4.95423216
_cell_angle_alpha   90.00000000
_cell_angle_beta   90.00000000
_cell_angle_gamma   120.00000000
_symmetry_Int_Tables_number   1
_chemical_formula_structural   LiF
_chemical_formula_sum   'Li24 F24'
_cell_volume   843.30621246
_cell_formula_units_Z   24
loop_
 _symmetry_equiv_pos_site_id
 _symmetry_equiv_pos_as_xyz
  1  'x, y, z'
loop_
 _atom_site_type_symbol
 _atom_site_label
 _atom_site_symmetry_multiplicity
 _atom_site_fract_x
 _atom_site_fract_y
 _atom_site_fract_z
 _atom_site_occupancy
  F  F0  1  0.00000000  0.00000000  0.00000000  1
  F  F1  1  0.00000000  0.00000000  0.50000000  1
  F  F2  1  0.20589461  0.43587562  0.32062551  1
  F  F3  1  -0.43587562  -0.22998101  0.32062551  1
  F  F4  1  0.22998101  -0.20589461  0.32062551  1
  F  F5  1  -0.20589461  -0.43587562  0.82062551  1
  F  F6  1  0.43587562  0.22998101  0.82062551  1
  F  F7  1  -0.22998101  0.20589461  0.82062551  1
  F  F8  1  -0.20589461  -0.43587562  -0.32062551  1
  F  F9  1  0.43587562  0.22998101  -0.32062551  1
  F  F10  1  -0.22998101  0.20589461  -0.32062551  1
  F  F11  1  0.20589461  0.43587562  0.17937449  1
  F  F12  1  -0.43587562  -0.22998101  0.17937449  1
  F  F13  1  0.22998101  -0.20589461  0.17937449  1
  F  F14  1  0.96667189  0.64167072  0.25000000  1
  F  F15  1  0.35832928  0.32500117  0.25000000  1
  F  F16  1  0.67499883  0.03332811  0.25000000  1
  F  F17  1  0.03332811  0.35832928  0.75000000  1
  F  F18  1  0.64167072  0.67499883  0.75000000  1
  F  F19  1  0.32500117  0.96667189  0.75000000  1
  F  F20  1  0.66666667  0.33333333  0.25000000  1
  F  F21  1  0.33333333  0.66666667  0.75000000  1
  F  F22  1  0.33333333  0.66666667  0.25000000  1
  F  F23  1  0.66666667  0.33333333  0.75000000  1
  Li  Li24  1  0.58923539  0.67263220  0.25000000  1
  Li  Li25  1  0.32736780  0.91660320  0.25000000  1
  Li  Li26  1  0.08339680  0.41076461  0.25000000  1
  Li  Li27  1  0.41076461  0.32736780  0.75000000  1
  Li  Li28  1  0.67263220  0.08339680  0.75000000  1
  Li  Li29  1  0.91660320  0.58923539  0.75000000  1
  Li  Li30  1  0.82869165  0.12883421  0.40777759  1
  Li  Li31  1  0.87116579  0.69985743  0.40777759  1
  Li  Li32  1  0.30014257  0.17130835  0.40777759  1
  Li  Li33  1  0.17130835  0.87116579  0.90777759  1
  Li  Li34  1  0.12883421  0.30014257  0.90777759  1
  Li  Li35  1  0.69985743  0.82869165  0.90777759  1
  Li  Li36  1  0.17130835  0.87116579  0.59222241  1
  Li  Li37  1  0.12883421  0.30014257  0.59222241  1
  Li  Li38  1  0.69985743  0.82869165  0.59222241  1
  Li  Li39  1  0.82869165  0.12883421  0.09222241  1
  Li  Li40  1  0.87116579  0.69985743  0.09222241  1
  Li  Li41  1  0.30014257  0.17130835  0.09222241  1
  Li  Li42  1  0.76025096  0.52385061  0.25000000  1
  Li  Li43  1  0.47614939  0.23640035  0.25000000  1
  Li  Li44  1  0.76359965  0.23974904  0.25000000  1
  Li  Li45  1  0.23974904  0.47614939  0.75000000  1
  Li  Li46  1  0.52385061  0.76359965  0.75000000  1
  Li  Li47  1  0.23640035  0.76025096  0.75000000  1
