# generated using pymatgen
data_LiY2Mo2P2Se
_symmetry_space_group_name_H-M   'P 1'
_cell_length_a   4.84698725
_cell_length_b   5.00812804
_cell_length_c   6.71005099
_cell_angle_alpha   93.65608411
_cell_angle_beta   98.32704308
_cell_angle_gamma   104.98226456
_symmetry_Int_Tables_number   1
_chemical_formula_structural   LiY2Mo2P2Se
_chemical_formula_sum   'Li1 Y2 Mo2 P2 Se1'
_cell_volume   154.81097280
_cell_formula_units_Z   1
loop_
 _symmetry_equiv_pos_site_id
 _symmetry_equiv_pos_as_xyz
  1  'x, y, z'
loop_
 _atom_site_type_symbol
 _atom_site_label
 _atom_site_symmetry_multiplicity
 _atom_site_fract_x
 _atom_site_fract_y
 _atom_site_fract_z
 _atom_site_occupancy
  Se  Se0  1  0.00000000  0.00000000  0.00000000  1
  P  P1  1  0.50000000  0.50000000  0.50000000  1
  P  P2  1  0.50000000  0.50000000  0.00000000  1
  Mo  Mo3  1  0.50000000  0.00000000  0.50000000  1
  Mo  Mo4  1  0.00000000  0.50000000  0.50000000  1
  Li  Li5  1  0.04671850  0.36448475  0.81847408  1
  Y  Y6  1  0.43829239  0.56393761  0.05142088  1
  Y  Y7  1  0.63987903  0.18417456  0.00787563  1
