# generated using pymatgen
data_Li2Y(P2Se)2
_symmetry_space_group_name_H-M   'P 1'
_cell_length_a   5.89667639
_cell_length_b   6.04145575
_cell_length_c   7.71603704
_cell_angle_alpha   94.07973421
_cell_angle_beta   98.88481294
_cell_angle_gamma   106.38667085
_symmetry_Int_Tables_number   1
_chemical_formula_structural   Li2Y(P2Se)2
_chemical_formula_sum   'Li2 Y1 P4 Se2'
_cell_volume   258.63471689
_cell_formula_units_Z   1
loop_
 _symmetry_equiv_pos_site_id
 _symmetry_equiv_pos_as_xyz
  1  'x, y, z'
loop_
 _atom_site_type_symbol
 _atom_site_label
 _atom_site_symmetry_multiplicity
 _atom_site_fract_x
 _atom_site_fract_y
 _atom_site_fract_z
 _atom_site_occupancy
  P  P0  1  0.00000000  0.00000000  0.00000000  1
  P  P1  1  0.50000000  0.50000000  0.50000000  1
  P  P2  1  0.25000000  0.25000000  0.25000000  1
  P  P3  1  0.75000000  0.25000000  0.00000000  1
  Se  Se4  1  0.25000000  0.75000000  0.50000000  1
  Se  Se5  1  0.92794884  0.87620417  0.12293400  1
  Li  Li6  1  0.45023454  0.94073138  0.75974843  1
  Li  Li7  1  0.56679897  0.03861397  0.73282656  1
  Y  Y8  1  0.44847256  0.08548065  0.50741734  1
