# generated using pymatgen
data_LiF
_symmetry_space_group_name_H-M   'P 1'
_cell_length_a   12.10839336
_cell_length_b   12.10839336
_cell_length_c   2.26574275
_cell_angle_alpha   90.00000000
_cell_angle_beta   90.00000000
_cell_angle_gamma   120.00000000
_symmetry_Int_Tables_number   1
_chemical_formula_structural   LiF
_chemical_formula_sum   'Li20 F20'
_cell_volume   287.68304865
_cell_formula_units_Z   20
loop_
 _symmetry_equiv_pos_site_id
 _symmetry_equiv_pos_as_xyz
  1  'x, y, z'
loop_
 _atom_site_type_symbol
 _atom_site_label
 _atom_site_symmetry_multiplicity
 _atom_site_fract_x
 _atom_site_fract_y
 _atom_site_fract_z
 _atom_site_occupancy
  F  F0  1  0.66666667  0.33333333  0.00000000  1
  F  F1  1  0.00000000  0.00000000  0.50000000  1
  F  F2  1  0.42844489  0.18130915  0.44196969  1
  F  F3  1  0.81869085  0.24713574  0.44196969  1
  F  F4  1  0.75286426  0.57155511  0.44196969  1
  F  F5  1  0.81869085  0.57155511  0.55803031  1
  F  F6  1  0.75286426  0.18130915  0.55803031  1
  F  F7  1  0.42844489  0.24713574  0.55803031  1
  F  F8  1  0.39710424  0.60289576  0.50000000  1
  F  F9  1  0.39710424  0.79420849  0.50000000  1
  F  F10  1  0.20579151  0.60289576  0.50000000  1
  F  F11  1  0.66771665  0.45786245  0.18010598  1
  F  F12  1  0.54213755  0.20985419  0.18010598  1
  F  F13  1  0.79014581  0.33228335  0.18010598  1
  F  F14  1  0.54213755  0.33228335  0.81989402  1
  F  F15  1  0.79014581  0.45786245  0.81989402  1
  F  F16  1  0.66771665  0.20985419  0.81989402  1
  F  F17  1  0.51233003  0.48766997  0.00000000  1
  F  F18  1  0.51233003  0.02466005  0.00000000  1
  F  F19  1  0.97533995  0.48766997  0.00000000  1
  Li  Li20  1  0.00000000  0.00000000  0.00000000  1
  Li  Li21  1  0.92437940  0.20640167  0.98201717  1
  Li  Li22  1  -0.20640167  0.71797772  0.98201717  1
  Li  Li23  1  -0.71797772  -0.92437940  0.98201717  1
  Li  Li24  1  -0.20640167  -0.92437940  -0.98201717  1
  Li  Li25  1  -0.71797772  0.20640167  -0.98201717  1
  Li  Li26  1  0.92437940  0.71797772  -0.98201717  1
  Li  Li27  1  0.95375440  0.04624560  0.50000000  1
  Li  Li28  1  0.95375440  0.90750880  0.50000000  1
  Li  Li29  1  0.09249120  0.04624560  0.50000000  1
  Li  Li30  1  0.98265476  0.37013524  0.05880516  1
  Li  Li31  1  0.62986476  0.61251951  0.05880516  1
  Li  Li32  1  0.38748049  0.01734524  0.05880516  1
  Li  Li33  1  0.62986476  0.01734524  0.94119484  1
  Li  Li34  1  0.38748049  0.37013524  0.94119484  1
  Li  Li35  1  0.98265476  0.61251951  0.94119484  1
  Li  Li36  1  0.66666667  0.33333333  0.50000000  1
  Li  Li37  1  0.55657892  0.44342108  0.00000000  1
  Li  Li38  1  0.55657892  0.11315783  0.00000000  1
  Li  Li39  1  0.88684217  0.44342108  0.00000000  1
