# generated using pymatgen
data_LiF
_symmetry_space_group_name_H-M   'P 1'
_cell_length_a   11.63777134
_cell_length_b   8.66475169
_cell_length_c   6.49670047
_cell_angle_alpha   90.00000000
_cell_angle_beta   90.00000000
_cell_angle_gamma   90.00000000
_symmetry_Int_Tables_number   1
_chemical_formula_structural   LiF
_chemical_formula_sum   'Li24 F24'
_cell_volume   655.11687335
_cell_formula_units_Z   24
loop_
 _symmetry_equiv_pos_site_id
 _symmetry_equiv_pos_as_xyz
  1  'x, y, z'
loop_
 _atom_site_type_symbol
 _atom_site_label
 _atom_site_symmetry_multiplicity
 _atom_site_fract_x
 _atom_site_fract_y
 _atom_site_fract_z
 _atom_site_occupancy
  F  F0  1  0.00000000  0.00000000  0.50000000  1
  F  F1  1  0.50000000  0.00000000  0.00000000  1
  F  F2  1  0.00000000  0.50000000  0.50000000  1
  F  F3  1  0.50000000  0.50000000  0.00000000  1
  F  F4  1  0.87167886  0.50010011  0.57885509  1
  F  F5  1  0.62832114  0.49989989  0.07885509  1
  F  F6  1  0.12832114  0.00010011  0.42114491  1
  F  F7  1  0.37167886  0.99989989  0.92114491  1
  F  F8  1  0.12832114  0.49989989  0.42114491  1
  F  F9  1  0.37167886  0.50010011  0.92114491  1
  F  F10  1  0.87167886  0.99989989  0.57885509  1
  F  F11  1  0.62832114  0.00010011  0.07885509  1
  F  F12  1  0.97788989  0.91345025  0.38970130  1
  F  F13  1  0.52211011  0.08654975  0.88970130  1
  F  F14  1  0.02211011  0.41345025  0.61029870  1
  F  F15  1  0.47788989  0.58654975  0.11029870  1
  F  F16  1  0.02211011  0.08654975  0.61029870  1
  F  F17  1  0.47788989  0.91345025  0.11029870  1
  F  F18  1  0.97788989  0.58654975  0.38970130  1
  F  F19  1  0.52211011  0.41345025  0.88970130  1
  F  F20  1  0.89792057  0.25000000  0.23169356  1
  F  F21  1  0.60207943  0.75000000  0.73169356  1
  F  F22  1  0.10207943  0.75000000  0.76830644  1
  F  F23  1  0.39792057  0.25000000  0.26830644  1
  Li  Li24  1  0.63757406  0.25000000  0.89107376  1
  Li  Li25  1  0.86242594  0.75000000  0.39107376  1
  Li  Li26  1  0.36242594  0.75000000  0.10892624  1
  Li  Li27  1  0.13757406  0.25000000  0.60892624  1
  Li  Li28  1  0.28144168  0.07844733  0.76076738  1
  Li  Li29  1  0.21855832  -0.07844733  1.26076738  1
  Li  Li30  1  -0.28144168  0.57844733  -0.76076738  1
  Li  Li31  1  0.78144168  0.42155267  -0.26076738  1
  Li  Li32  1  -0.28144168  -0.07844733  -0.76076738  1
  Li  Li33  1  0.78144168  0.07844733  -0.26076738  1
  Li  Li34  1  0.28144168  0.42155267  0.76076738  1
  Li  Li35  1  0.21855832  0.57844733  1.26076738  1
  Li  Li36  1  0.50356458  0.50995482  0.75212815  1
  Li  Li37  1  0.99643542  0.49004518  0.25212815  1
  Li  Li38  1  0.49643542  0.00995482  0.24787185  1
  Li  Li39  1  0.00356458  0.99004518  0.74787185  1
  Li  Li40  1  0.49643542  0.49004518  0.24787185  1
  Li  Li41  1  0.00356458  0.50995482  0.74787185  1
  Li  Li42  1  0.50356458  0.99004518  0.75212815  1
  Li  Li43  1  0.99643542  0.00995482  0.25212815  1
  Li  Li44  1  0.00000000  0.00000000  0.00000000  1
  Li  Li45  1  0.50000000  0.00000000  0.50000000  1
  Li  Li46  1  0.00000000  0.50000000  0.00000000  1
  Li  Li47  1  0.50000000  0.50000000  0.50000000  1
