# generated using pymatgen
data_LiF
_symmetry_space_group_name_H-M   'P 1'
_cell_length_a   5.86051813
_cell_length_b   5.86051813
_cell_length_c   25.04936080
_cell_angle_alpha   90.00000000
_cell_angle_beta   90.00000000
_cell_angle_gamma   120.00000000
_symmetry_Int_Tables_number   1
_chemical_formula_structural   LiF
_chemical_formula_sum   'Li26 F26'
_cell_volume   745.07382632
_cell_formula_units_Z   26
loop_
 _symmetry_equiv_pos_site_id
 _symmetry_equiv_pos_as_xyz
  1  'x, y, z'
loop_
 _atom_site_type_symbol
 _atom_site_label
 _atom_site_symmetry_multiplicity
 _atom_site_fract_x
 _atom_site_fract_y
 _atom_site_fract_z
 _atom_site_occupancy
  F  F0  1  0.96672721  0.93317083  0.62459811  1
  F  F1  1  0.06682917  0.03355638  0.62459811  1
  F  F2  1  0.96644362  0.03327279  0.62459811  1
  F  F3  1  0.06682917  0.03327279  0.37540189  1
  F  F4  1  0.96644362  0.93317083  0.37540189  1
  F  F5  1  0.96672721  0.03355638  0.37540189  1
  F  F6  1  0.56429884  0.43570116  0.50000000  1
  F  F7  1  0.56429884  0.12859767  0.50000000  1
  F  F8  1  0.87140233  0.43570116  0.50000000  1
  F  F9  1  0.66666667  0.33333333  0.65170489  1
  F  F10  1  0.66666667  0.33333333  0.34829511  1
  F  F11  1  0.97961538  0.89831275  0.75139560  1
  F  F12  1  0.10168725  0.08130263  0.75139560  1
  F  F13  1  0.91869737  0.02038462  0.75139560  1
  F  F14  1  0.10168725  0.02038462  0.24860440  1
  F  F15  1  0.91869737  0.89831275  0.24860440  1
  F  F16  1  0.97961538  0.08130263  0.24860440  1
  F  F17  1  0.52813650  0.56023050  0.89325788  1
  F  F18  1  0.43976950  0.96790599  0.89325788  1
  F  F19  1  0.03209401  0.47186350  0.89325788  1
  F  F20  1  0.43976950  0.47186350  0.10674212  1
  F  F21  1  0.03209401  0.56023050  0.10674212  1
  F  F22  1  0.52813650  0.96790599  0.10674212  1
  F  F23  1  0.33333333  0.66666667  0.50000000  1
  F  F24  1  0.66666667  0.33333333  0.86154286  1
  F  F25  1  0.66666667  0.33333333  0.13845714  1
  Li  Li26  1  0.48505434  0.10063530  0.74188276  1
  Li  Li27  1  -0.10063530  0.38441904  0.74188276  1
  Li  Li28  1  -0.38441904  -0.48505434  0.74188276  1
  Li  Li29  1  -0.10063530  -0.48505434  -0.74188276  1
  Li  Li30  1  -0.38441904  0.10063530  -0.74188276  1
  Li  Li31  1  0.48505434  0.38441904  -0.74188276  1
  Li  Li32  1  0.66666667  0.33333333  0.57538189  1
  Li  Li33  1  0.66666667  0.33333333  0.42461811  1
  Li  Li34  1  0.81964588  0.24544805  0.34843594  1
  Li  Li35  1  0.75455195  0.57419783  0.34843594  1
  Li  Li36  1  0.42580217  0.18035412  0.34843594  1
  Li  Li37  1  0.75455195  0.18035412  0.65156406  1
  Li  Li38  1  0.42580217  0.24544805  0.65156406  1
  Li  Li39  1  0.81964588  0.57419783  0.65156406  1
  Li  Li40  1  0.00000000  0.00000000  0.50000000  1
  Li  Li41  1  0.12778933  0.67876901  0.84791751  1
  Li  Li42  1  0.32123099  0.44902032  0.84791751  1
  Li  Li43  1  0.55097968  0.87221067  0.84791751  1
  Li  Li44  1  0.32123099  0.87221067  0.15208249  1
  Li  Li45  1  0.55097968  0.67876901  0.15208249  1
  Li  Li46  1  0.12778933  0.44902032  0.15208249  1
  Li  Li47  1  0.56464802  0.43535198  0.00000000  1
  Li  Li48  1  0.56464802  0.12929604  0.00000000  1
  Li  Li49  1  0.87070396  0.43535198  0.00000000  1
  Li  Li50  1  0.33333333  0.66666667  -0.00000000  1
  Li  Li51  1  0.66666667  0.33333333  0.50000000  1
