# generated using pymatgen
data_Li2Y2Cu3P2Se
_symmetry_space_group_name_H-M   'P 1'
_cell_length_a   5.13836744
_cell_length_b   5.42599986
_cell_length_c   6.64571078
_cell_angle_alpha   94.23047627
_cell_angle_beta   97.08781090
_cell_angle_gamma   102.56030176
_symmetry_Int_Tables_number   1
_chemical_formula_structural   Li2Y2Cu3P2Se
_chemical_formula_sum   'Li2 Y2 Cu3 P2 Se1'
_cell_volume   178.50056261
_cell_formula_units_Z   1
loop_
 _symmetry_equiv_pos_site_id
 _symmetry_equiv_pos_as_xyz
  1  'x, y, z'
loop_
 _atom_site_type_symbol
 _atom_site_label
 _atom_site_symmetry_multiplicity
 _atom_site_fract_x
 _atom_site_fract_y
 _atom_site_fract_z
 _atom_site_occupancy
  Se  Se0  1  0.00000000  0.00000000  0.00000000  1
  Cu  Cu1  1  0.50000000  0.50000000  0.50000000  1
  Cu  Cu2  1  0.25000000  0.25000000  0.25000000  1
  Cu  Cu3  1  0.75000000  0.25000000  0.00000000  1
  Y  Y4  1  0.25000000  0.75000000  0.50000000  1
  Y  Y5  1  0.76603181  0.35190239  0.59866970  1
  P  P6  1  0.53644017  0.64749311  0.32942137  1
  P  P7  1  0.89103213  0.96688170  0.18632244  1
  Li  Li8  1  0.09762705  0.20769380  0.75884498  1
  Li  Li9  1  0.60708044  0.55863830  0.77749526  1
