# generated using pymatgen
data_LiY2MoP3
_symmetry_space_group_name_H-M   'P 1'
_cell_length_a   5.77869991
_cell_length_b   6.01538704
_cell_length_c   7.47583064
_cell_angle_alpha   93.51401222
_cell_angle_beta   97.65278806
_cell_angle_gamma   104.11439045
_symmetry_Int_Tables_number   1
_chemical_formula_structural   LiY2MoP3
_chemical_formula_sum   'Li1 Y2 Mo1 P3'
_cell_volume   248.58689703
_cell_formula_units_Z   1
loop_
 _symmetry_equiv_pos_site_id
 _symmetry_equiv_pos_as_xyz
  1  'x, y, z'
loop_
 _atom_site_type_symbol
 _atom_site_label
 _atom_site_symmetry_multiplicity
 _atom_site_fract_x
 _atom_site_fract_y
 _atom_site_fract_z
 _atom_site_occupancy
  P  P0  1  0.12500000  0.00000000  0.25000000  1
  P  P1  1  0.00000000  0.00000000  0.00000000  1
  P  P2  1  0.37500000  0.00000000  0.25000000  1
  Mo  Mo3  1  0.25000000  0.25000000  0.25000000  1
  Li  Li4  1  0.00000000  0.25000000  0.12500000  1
  Y  Y5  1  0.65107440  0.93444119  0.39799026  1
  Y  Y6  1  0.13302032  0.21706305  0.79909763  1
