# generated using pymatgen
data_Li2Sb2Mo(PSe)2
_symmetry_space_group_name_H-M   'P 1'
_cell_length_a   4.39487495
_cell_length_b   4.59559582
_cell_length_c   6.81730680
_cell_angle_alpha   95.81146634
_cell_angle_beta   102.29131009
_cell_angle_gamma   111.56927150
_symmetry_Int_Tables_number   1
_chemical_formula_structural   Li2Sb2Mo(PSe)2
_chemical_formula_sum   'Li2 Sb2 Mo1 P2 Se2'
_cell_volume   122.64667669
_cell_formula_units_Z   1
loop_
 _symmetry_equiv_pos_site_id
 _symmetry_equiv_pos_as_xyz
  1  'x, y, z'
loop_
 _atom_site_type_symbol
 _atom_site_label
 _atom_site_symmetry_multiplicity
 _atom_site_fract_x
 _atom_site_fract_y
 _atom_site_fract_z
 _atom_site_occupancy
  Se  Se0  1  0.12500000  0.00000000  0.25000000  1
  Se  Se1  1  0.00000000  0.00000000  0.00000000  1
  P  P2  1  0.37500000  0.00000000  0.25000000  1
  P  P3  1  0.25000000  0.25000000  0.25000000  1
  Mo  Mo4  1  0.00000000  0.25000000  0.12500000  1
  Li  Li5  1  0.27983016  0.93961822  0.78859600  1
  Li  Li6  1  0.74277401  0.99636283  0.39395559  1
  Sb  Sb7  1  0.53092507  0.40966393  0.76289820  1
  Sb  Sb8  1  0.34219266  0.98249735  0.04300378  1
