# generated using pymatgen
data_LiY2Te4AsP3
_symmetry_space_group_name_H-M   'P 1'
_cell_length_a   4.25456142
_cell_length_b   4.39189714
_cell_length_c   6.83287504
_cell_angle_alpha   96.19820483
_cell_angle_beta   102.94071801
_cell_angle_gamma   112.18556412
_symmetry_Int_Tables_number   1
_chemical_formula_structural   LiY2Te4AsP3
_chemical_formula_sum   'Li1 Y2 Te4 As1 P3'
_cell_volume   112.56861638
_cell_formula_units_Z   1
loop_
 _symmetry_equiv_pos_site_id
 _symmetry_equiv_pos_as_xyz
  1  'x, y, z'
loop_
 _atom_site_type_symbol
 _atom_site_label
 _atom_site_symmetry_multiplicity
 _atom_site_fract_x
 _atom_site_fract_y
 _atom_site_fract_z
 _atom_site_occupancy
  Te  Te0  1  0.00000000  0.00000000  0.00000000  1
  Te  Te1  1  0.50000000  0.50000000  0.50000000  1
  Te  Te2  1  0.25000000  0.25000000  0.25000000  1
  Te  Te3  1  0.75000000  0.25000000  0.00000000  1
  P  P4  1  0.25000000  0.75000000  0.50000000  1
  P  P5  1  0.77294125  0.24615018  0.88695341  1
  P  P6  1  0.99440367  0.97693193  0.77735332  1
  As  As7  1  0.49803998  0.20345964  0.19201629  1
  Li  Li8  1  0.21841305  0.69599002  0.16598285  1
  Y  Y9  1  0.51050978  0.57588604  0.75876993  1
  Y  Y10  1  0.14710450  0.90539321  0.79319085  1
