# generated using pymatgen
data_LiF
_symmetry_space_group_name_H-M   'P 1'
_cell_length_a   9.61782708
_cell_length_b   6.51139347
_cell_length_c   7.32887480
_cell_angle_alpha   90.00000000
_cell_angle_beta   90.00000000
_cell_angle_gamma   90.00000000
_symmetry_Int_Tables_number   1
_chemical_formula_structural   LiF
_chemical_formula_sum   'Li24 F24'
_cell_volume   458.97412935
_cell_formula_units_Z   24
loop_
 _symmetry_equiv_pos_site_id
 _symmetry_equiv_pos_as_xyz
  1  'x, y, z'
loop_
 _atom_site_type_symbol
 _atom_site_label
 _atom_site_symmetry_multiplicity
 _atom_site_fract_x
 _atom_site_fract_y
 _atom_site_fract_z
 _atom_site_occupancy
  F  F0  1  0.19360995  0.08616362  0.07695183  1
  F  F1  1  0.30639005  0.91383638  0.57695183  1
  F  F2  1  0.80639005  0.58616362  0.92304817  1
  F  F3  1  0.69360995  0.41383638  0.42304817  1
  F  F4  1  0.80639005  0.91383638  0.92304817  1
  F  F5  1  0.69360995  0.08616362  0.42304817  1
  F  F6  1  0.19360995  0.41383638  0.07695183  1
  F  F7  1  0.30639005  0.58616362  0.57695183  1
  F  F8  1  0.64416171  0.97030359  0.96723912  1
  F  F9  1  0.85583829  0.02969641  0.46723912  1
  F  F10  1  0.35583829  0.47030359  0.03276088  1
  F  F11  1  0.14416171  0.52969641  0.53276088  1
  F  F12  1  0.35583829  0.02969641  0.03276088  1
  F  F13  1  0.14416171  0.97030359  0.53276088  1
  F  F14  1  0.64416171  0.52969641  0.96723912  1
  F  F15  1  0.85583829  0.47030359  0.46723912  1
  F  F16  1  0.79883499  0.47403759  0.35380558  1
  F  F17  1  0.70116501  0.52596241  0.85380558  1
  F  F18  1  0.20116501  0.97403759  0.64619442  1
  F  F19  1  0.29883499  0.02596241  0.14619442  1
  F  F20  1  0.20116501  0.52596241  0.64619442  1
  F  F21  1  0.29883499  0.47403759  0.14619442  1
  F  F22  1  0.79883499  0.02596241  0.35380558  1
  F  F23  1  0.70116501  0.97403759  0.85380558  1
  Li  Li24  1  0.22877382  0.25000000  0.43346717  1
  Li  Li25  1  0.27122618  0.75000000  0.93346717  1
  Li  Li26  1  0.77122618  0.75000000  0.56653283  1
  Li  Li27  1  0.72877382  0.25000000  0.06653283  1
  Li  Li28  1  0.00000000  0.00000000  0.50000000  1
  Li  Li29  1  0.50000000  0.00000000  0.00000000  1
  Li  Li30  1  0.00000000  0.50000000  0.50000000  1
  Li  Li31  1  0.50000000  0.50000000  -0.00000000  1
  Li  Li32  1  0.56639787  0.10035530  0.84598989  1
  Li  Li33  1  -0.06639787  -0.10035530  1.34598989  1
  Li  Li34  1  -0.56639787  0.60035530  -0.84598989  1
  Li  Li35  1  1.06639787  0.39964470  -0.34598989  1
  Li  Li36  1  -0.56639787  -0.10035530  -0.84598989  1
  Li  Li37  1  1.06639787  0.10035530  -0.34598989  1
  Li  Li38  1  0.56639787  0.39964470  0.84598989  1
  Li  Li39  1  -0.06639787  0.60035530  1.34598989  1
  Li  Li40  1  0.00000000  0.00000000  0.00000000  1
  Li  Li41  1  0.50000000  0.00000000  0.50000000  1
  Li  Li42  1  0.00000000  0.50000000  -0.00000000  1
  Li  Li43  1  0.50000000  0.50000000  0.50000000  1
  Li  Li44  1  0.07461988  0.25000000  0.28416023  1
  Li  Li45  1  0.42538012  0.75000000  0.78416023  1
  Li  Li46  1  0.92538012  0.75000000  0.71583977  1
  Li  Li47  1  0.57461988  0.25000000  0.21583977  1
