# generated using pymatgen
data_LiF
_symmetry_space_group_name_H-M   'P 1'
_cell_length_a   9.30931901
_cell_length_b   9.14785058
_cell_length_c   16.37016744
_cell_angle_alpha   90.00000000
_cell_angle_beta   90.00000000
_cell_angle_gamma   90.00000000
_symmetry_Int_Tables_number   1
_chemical_formula_structural   LiF
_chemical_formula_sum   'Li72 F72'
_cell_volume   1394.08770420
_cell_formula_units_Z   72
loop_
 _symmetry_equiv_pos_site_id
 _symmetry_equiv_pos_as_xyz
  1  'x, y, z'
loop_
 _atom_site_type_symbol
 _atom_site_label
 _atom_site_symmetry_multiplicity
 _atom_site_fract_x
 _atom_site_fract_y
 _atom_site_fract_z
 _atom_site_occupancy
  F  F0  1  0.34374236  0.25000000  0.08394381  1
  F  F1  1  0.15625764  0.75000000  0.58394381  1
  F  F2  1  0.65625764  0.75000000  0.91605619  1
  F  F3  1  0.84374236  0.25000000  0.41605619  1
  F  F4  1  0.43195725  0.18734832  0.76481836  1
  F  F5  1  0.06804275  0.81265168  0.26481836  1
  F  F6  1  0.56804275  0.68734832  0.23518164  1
  F  F7  1  0.93195725  0.31265168  0.73518164  1
  F  F8  1  0.56804275  0.81265168  0.23518164  1
  F  F9  1  0.93195725  0.18734832  0.73518164  1
  F  F10  1  0.43195725  0.31265168  0.76481836  1
  F  F11  1  0.06804275  0.68734832  0.26481836  1
  F  F12  1  0.17203414  0.80242869  0.84013169  1
  F  F13  1  0.32796586  0.19757131  0.34013169  1
  F  F14  1  0.82796586  0.30242869  0.15986831  1
  F  F15  1  0.67203414  0.69757131  0.65986831  1
  F  F16  1  0.82796586  0.19757131  0.15986831  1
  F  F17  1  0.67203414  0.80242869  0.65986831  1
  F  F18  1  0.17203414  0.69757131  0.84013169  1
  F  F19  1  0.32796586  0.30242869  0.34013169  1
  F  F20  1  0.45348709  0.17179286  0.63583450  1
  F  F21  1  0.04651291  0.82820714  0.13583450  1
  F  F22  1  0.54651291  0.67179286  0.36416550  1
  F  F23  1  0.95348709  0.32820714  0.86416550  1
  F  F24  1  0.54651291  0.82820714  0.36416550  1
  F  F25  1  0.95348709  0.17179286  0.86416550  1
  F  F26  1  0.45348709  0.32820714  0.63583450  1
  F  F27  1  0.04651291  0.67179286  0.13583450  1
  F  F28  1  0.47064869  0.25000000  0.57436011  1
  F  F29  1  0.02935131  0.75000000  0.07436011  1
  F  F30  1  0.52935131  0.75000000  0.42563989  1
  F  F31  1  0.97064869  0.25000000  0.92563989  1
  F  F32  1  0.07143753  0.65609777  0.51983962  1
  F  F33  1  0.42856247  0.34390223  0.01983962  1
  F  F34  1  0.92856247  0.15609777  0.48016038  1
  F  F35  1  0.57143753  0.84390223  0.98016038  1
  F  F36  1  0.92856247  0.34390223  0.48016038  1
  F  F37  1  0.57143753  0.65609777  0.98016038  1
  F  F38  1  0.07143753  0.84390223  0.51983962  1
  F  F39  1  0.42856247  0.15609777  0.01983962  1
  F  F40  1  0.32454414  0.89113531  0.62350920  1
  F  F41  1  0.17545586  0.10886469  0.12350920  1
  F  F42  1  0.67545586  0.39113531  0.37649080  1
  F  F43  1  0.82454414  0.60886469  0.87649080  1
  F  F44  1  0.67545586  0.10886469  0.37649080  1
  F  F45  1  0.82454414  0.89113531  0.87649080  1
  F  F46  1  0.32454414  0.60886469  0.62350920  1
  F  F47  1  0.17545586  0.39113531  0.12350920  1
  F  F48  1  0.79359746  0.63787467  0.24079176  1
  F  F49  1  0.70640254  0.36212533  0.74079176  1
  F  F50  1  0.20640254  0.13787467  0.75920824  1
  F  F51  1  0.29359746  0.86212533  0.25920824  1
  F  F52  1  0.20640254  0.36212533  0.75920824  1
  F  F53  1  0.29359746  0.63787467  0.25920824  1
  F  F54  1  0.79359746  0.86212533  0.24079176  1
  F  F55  1  0.70640254  0.13787467  0.74079176  1
  F  F56  1  0.01688079  0.80896714  0.33762059  1
  F  F57  1  0.48311921  0.19103286  0.83762059  1
  F  F58  1  0.98311921  0.30896714  0.66237941  1
  F  F59  1  0.51688079  0.69103286  0.16237941  1
  F  F60  1  0.98311921  0.19103286  0.66237941  1
  F  F61  1  0.51688079  0.80896714  0.16237941  1
  F  F62  1  0.01688079  0.69103286  0.33762059  1
  F  F63  1  0.48311921  0.30896714  0.83762059  1
  F  F64  1  0.17643852  0.47599015  0.92394879  1
  F  F65  1  0.32356148  0.52400985  0.42394879  1
  F  F66  1  0.82356148  0.97599015  0.07605121  1
  F  F67  1  0.67643852  0.02400985  0.57605121  1
  F  F68  1  0.82356148  0.52400985  0.07605121  1
  F  F69  1  0.67643852  0.47599015  0.57605121  1
  F  F70  1  0.17643852  0.02400985  0.92394879  1
  F  F71  1  0.32356148  0.97599015  0.42394879  1
  Li  Li72  1  0.08129302  0.25000000  0.51912322  1
  Li  Li73  1  0.41870698  0.75000000  0.01912322  1
  Li  Li74  1  0.91870698  0.75000000  0.48087678  1
  Li  Li75  1  0.58129302  0.25000000  0.98087678  1
  Li  Li76  1  0.26603348  0.49994241  0.12454810  1
  Li  Li77  1  0.23396652  -0.49994241  0.62454810  1
  Li  Li78  1  -0.26603348  0.99994241  -0.12454810  1
  Li  Li79  1  0.76603348  0.00005759  0.37545190  1
  Li  Li80  1  -0.26603348  -0.49994241  -0.12454810  1
  Li  Li81  1  0.76603348  0.49994241  0.37545190  1
  Li  Li82  1  0.26603348  0.00005759  0.12454810  1
  Li  Li83  1  0.23396652  0.99994241  0.62454810  1
  Li  Li84  1  0.68731214  0.05072195  0.48927566  1
  Li  Li85  1  0.81268786  0.94927805  0.98927566  1
  Li  Li86  1  0.31268786  0.55072195  0.51072434  1
  Li  Li87  1  0.18731214  0.44927805  0.01072434  1
  Li  Li88  1  0.31268786  0.94927805  0.51072434  1
  Li  Li89  1  0.18731214  0.05072195  0.01072434  1
  Li  Li90  1  0.68731214  0.44927805  0.48927566  1
  Li  Li91  1  0.81268786  0.55072195  0.98927566  1
  Li  Li92  1  0.29269007  0.83192294  0.98644652  1
  Li  Li93  1  0.20730993  0.16807706  0.48644652  1
  Li  Li94  1  0.70730993  0.33192294  0.01355348  1
  Li  Li95  1  0.79269007  0.66807706  0.51355348  1
  Li  Li96  1  0.70730993  0.16807706  0.01355348  1
  Li  Li97  1  0.79269007  0.83192294  0.51355348  1
  Li  Li98  1  0.29269007  0.66807706  0.98644652  1
  Li  Li99  1  0.20730993  0.33192294  0.48644652  1
  Li  Li100  1  0.00000000  0.00000000  0.00000000  1
  Li  Li101  1  0.50000000  0.00000000  0.50000000  1
  Li  Li102  1  0.00000000  0.50000000  0.00000000  1
  Li  Li103  1  0.50000000  0.50000000  0.50000000  1
  Li  Li104  1  0.00000000  0.00000000  0.50000000  1
  Li  Li105  1  0.50000000  0.00000000  -0.00000000  1
  Li  Li106  1  0.00000000  0.50000000  0.50000000  1
  Li  Li107  1  0.50000000  0.50000000  -0.00000000  1
  Li  Li108  1  0.45686492  0.61282892  0.88527303  1
  Li  Li109  1  0.04313508  0.38717108  0.38527303  1
  Li  Li110  1  0.54313508  0.11282892  0.11472697  1
  Li  Li111  1  0.95686492  0.88717108  0.61472697  1
  Li  Li112  1  0.54313508  0.38717108  0.11472697  1
  Li  Li113  1  0.95686492  0.61282892  0.61472697  1
  Li  Li114  1  0.45686492  0.88717108  0.88527303  1
  Li  Li115  1  0.04313508  0.11282892  0.38527303  1
  Li  Li116  1  0.74636123  0.84557990  0.03668398  1
  Li  Li117  1  0.75363877  0.15442010  0.53668398  1
  Li  Li118  1  0.25363877  0.34557990  0.96331602  1
  Li  Li119  1  0.24636123  0.65442010  0.46331602  1
  Li  Li120  1  0.25363877  0.15442010  0.96331602  1
  Li  Li121  1  0.24636123  0.84557990  0.46331602  1
  Li  Li122  1  0.74636123  0.65442010  0.03668398  1
  Li  Li123  1  0.75363877  0.34557990  0.53668398  1
  Li  Li124  1  0.75011085  0.52921542  0.29403097  1
  Li  Li125  1  0.74988915  0.47078458  0.79403097  1
  Li  Li126  1  0.24988915  0.02921542  0.70596903  1
  Li  Li127  1  0.25011085  0.97078458  0.20596903  1
  Li  Li128  1  0.24988915  0.47078458  0.70596903  1
  Li  Li129  1  0.25011085  0.52921542  0.20596903  1
  Li  Li130  1  0.75011085  0.97078458  0.29403097  1
  Li  Li131  1  0.74988915  0.02921542  0.79403097  1
  Li  Li132  1  0.09913942  0.25000000  0.10231161  1
  Li  Li133  1  0.40086058  0.75000000  0.60231161  1
  Li  Li134  1  0.90086058  0.75000000  0.89768839  1
  Li  Li135  1  0.59913942  0.25000000  0.39768839  1
  Li  Li136  1  0.36079192  0.05230425  0.96313878  1
  Li  Li137  1  0.13920808  0.94769575  0.46313878  1
  Li  Li138  1  0.63920808  0.55230425  0.03686122  1
  Li  Li139  1  0.86079192  0.44769575  0.53686122  1
  Li  Li140  1  0.63920808  0.94769575  0.03686122  1
  Li  Li141  1  0.86079192  0.05230425  0.53686122  1
  Li  Li142  1  0.36079192  0.44769575  0.96313878  1
  Li  Li143  1  0.13920808  0.55230425  0.46313878  1
