# generated using pymatgen
data_Li2Y2MoP3Se2
_symmetry_space_group_name_H-M   'P 1'
_cell_length_a   5.13364841
_cell_length_b   5.29582911
_cell_length_c   7.08316481
_cell_angle_alpha   94.53516910
_cell_angle_beta   99.52141545
_cell_angle_gamma   106.48962051
_symmetry_Int_Tables_number   1
_chemical_formula_structural   Li2Y2MoP3Se2
_chemical_formula_sum   'Li2 Y2 Mo1 P3 Se2'
_cell_volume   180.48126724
_cell_formula_units_Z   1
loop_
 _symmetry_equiv_pos_site_id
 _symmetry_equiv_pos_as_xyz
  1  'x, y, z'
loop_
 _atom_site_type_symbol
 _atom_site_label
 _atom_site_symmetry_multiplicity
 _atom_site_fract_x
 _atom_site_fract_y
 _atom_site_fract_z
 _atom_site_occupancy
  Se  Se0  1  0.12500000  0.00000000  0.25000000  1
  Se  Se1  1  0.00000000  0.00000000  0.00000000  1
  P  P2  1  0.37500000  0.00000000  0.25000000  1
  P  P3  1  0.25000000  0.25000000  0.25000000  1
  P  P4  1  0.00000000  0.25000000  0.12500000  1
  Mo  Mo5  1  0.53060293  0.22535221  0.97792033  1
  Li  Li6  1  0.38507989  0.00477351  0.05991548  1
  Li  Li7  1  0.13887668  0.48334106  0.17448740  1
  Y  Y8  1  0.59439777  0.06199983  0.66459174  1
  Y  Y9  1  0.44370610  0.64785295  0.96571979  1
