# generated using pymatgen
data_LiYP2Se
_symmetry_space_group_name_H-M   'P 1'
_cell_length_a   4.37469130
_cell_length_b   4.67196457
_cell_length_c   6.94276063
_cell_angle_alpha   95.83302079
_cell_angle_beta   102.70310662
_cell_angle_gamma   113.42892622
_symmetry_Int_Tables_number   1
_chemical_formula_structural   LiYP2Se
_chemical_formula_sum   'Li2 Y2 P4 Se2'
_cell_volume   124.14732396
_cell_formula_units_Z   2
loop_
 _symmetry_equiv_pos_site_id
 _symmetry_equiv_pos_as_xyz
  1  'x, y, z'
loop_
 _atom_site_type_symbol
 _atom_site_label
 _atom_site_symmetry_multiplicity
 _atom_site_fract_x
 _atom_site_fract_y
 _atom_site_fract_z
 _atom_site_occupancy
  P  P0  1  0.00000000  0.00000000  0.00000000  1
  P  P1  1  0.50000000  0.50000000  0.50000000  1
  P  P2  1  0.25000000  0.25000000  0.25000000  1
  P  P3  1  0.75000000  0.25000000  0.00000000  1
  Se  Se4  1  0.25000000  0.75000000  0.50000000  1
  Se  Se5  1  0.26076486  0.51417520  0.17060356  1
  Li  Li6  1  0.33662009  0.29454714  0.14670455  1
  Li  Li7  1  0.56607298  0.59041135  0.78864018  1
  Y  Y8  1  0.42628789  0.24236314  0.60205650  1
  Y  Y9  1  0.48791565  0.70398794  0.28082551  1
