# generated using pymatgen
data_LiF
_symmetry_space_group_name_H-M   'P 1'
_cell_length_a   11.35530562
_cell_length_b   8.74078785
_cell_length_c   9.28786860
_cell_angle_alpha   90.00000000
_cell_angle_beta   90.00000000
_cell_angle_gamma   90.00000000
_symmetry_Int_Tables_number   1
_chemical_formula_structural   LiF
_chemical_formula_sum   'Li36 F36'
_cell_volume   921.86105881
_cell_formula_units_Z   36
loop_
 _symmetry_equiv_pos_site_id
 _symmetry_equiv_pos_as_xyz
  1  'x, y, z'
loop_
 _atom_site_type_symbol
 _atom_site_label
 _atom_site_symmetry_multiplicity
 _atom_site_fract_x
 _atom_site_fract_y
 _atom_site_fract_z
 _atom_site_occupancy
  F  F0  1  0.92679464  0.25000000  0.64982751  1
  F  F1  1  0.57320536  0.75000000  0.14982751  1
  F  F2  1  0.07320536  0.75000000  0.35017249  1
  F  F3  1  0.42679464  0.25000000  0.85017249  1
  F  F4  1  0.91243179  0.12151810  0.43740340  1
  F  F5  1  0.58756821  0.87848190  0.93740340  1
  F  F6  1  0.08756821  0.62151810  0.56259660  1
  F  F7  1  0.41243179  0.37848190  0.06259660  1
  F  F8  1  0.08756821  0.87848190  0.56259660  1
  F  F9  1  0.41243179  0.12151810  0.06259660  1
  F  F10  1  0.91243179  0.37848190  0.43740340  1
  F  F11  1  0.58756821  0.62151810  0.93740340  1
  F  F12  1  0.53345326  0.58091266  0.33267194  1
  F  F13  1  0.96654674  0.41908734  0.83267194  1
  F  F14  1  0.46654674  0.08091266  0.66732806  1
  F  F15  1  0.03345326  0.91908734  0.16732806  1
  F  F16  1  0.46654674  0.41908734  0.66732806  1
  F  F17  1  0.03345326  0.58091266  0.16732806  1
  F  F18  1  0.53345326  0.91908734  0.33267194  1
  F  F19  1  0.96654674  0.08091266  0.83267194  1
  F  F20  1  0.26018886  0.61037895  0.04691104  1
  F  F21  1  0.23981114  0.38962105  0.54691104  1
  F  F22  1  0.73981114  0.11037895  0.95308896  1
  F  F23  1  0.76018886  0.88962105  0.45308896  1
  F  F24  1  0.73981114  0.38962105  0.95308896  1
  F  F25  1  0.76018886  0.61037895  0.45308896  1
  F  F26  1  0.26018886  0.88962105  0.04691104  1
  F  F27  1  0.23981114  0.11037895  0.54691104  1
  F  F28  1  0.89024185  0.25000000  0.37511375  1
  F  F29  1  0.60975815  0.75000000  0.87511375  1
  F  F30  1  0.10975815  0.75000000  0.62488625  1
  F  F31  1  0.39024185  0.25000000  0.12488625  1
  F  F32  1  0.22812427  0.25000000  0.59975969  1
  F  F33  1  0.27187573  0.75000000  0.09975969  1
  F  F34  1  0.77187573  0.75000000  0.40024031  1
  F  F35  1  0.72812427  0.25000000  0.90024031  1
  Li  Li36  1  0.23878256  0.07102547  0.92857642  1
  Li  Li37  1  0.26121744  -0.07102547  1.42857642  1
  Li  Li38  1  -0.23878256  0.57102547  -0.92857642  1
  Li  Li39  1  0.73878256  0.42897453  -0.42857642  1
  Li  Li40  1  -0.23878256  -0.07102547  -0.92857642  1
  Li  Li41  1  0.73878256  0.07102547  -0.42857642  1
  Li  Li42  1  0.23878256  0.42897453  0.92857642  1
  Li  Li43  1  0.26121744  0.57102547  1.42857642  1
  Li  Li44  1  0.41110665  0.25000000  0.30372896  1
  Li  Li45  1  0.08889335  0.75000000  0.80372896  1
  Li  Li46  1  0.58889335  0.75000000  0.69627104  1
  Li  Li47  1  0.91110665  0.25000000  0.19627104  1
  Li  Li48  1  0.26219055  0.97835664  0.18005987  1
  Li  Li49  1  0.23780945  0.02164336  0.68005987  1
  Li  Li50  1  0.73780945  0.47835664  0.81994013  1
  Li  Li51  1  0.76219055  0.52164336  0.31994013  1
  Li  Li52  1  0.73780945  0.02164336  0.81994013  1
  Li  Li53  1  0.76219055  0.97835664  0.31994013  1
  Li  Li54  1  0.26219055  0.52164336  0.18005987  1
  Li  Li55  1  0.23780945  0.47835664  0.68005987  1
  Li  Li56  1  0.00000000  0.00000000  0.00000000  1
  Li  Li57  1  0.50000000  -0.00000000  0.50000000  1
  Li  Li58  1  0.00000000  0.50000000  0.00000000  1
  Li  Li59  1  0.50000000  0.50000000  0.50000000  1
  Li  Li60  1  0.04406861  0.40769567  0.51809980  1
  Li  Li61  1  0.45593139  0.59230433  0.01809980  1
  Li  Li62  1  0.95593139  0.90769567  0.48190020  1
  Li  Li63  1  0.54406861  0.09230433  0.98190020  1
  Li  Li64  1  0.95593139  0.59230433  0.48190020  1
  Li  Li65  1  0.54406861  0.40769567  0.98190020  1
  Li  Li66  1  0.04406861  0.09230433  0.51809980  1
  Li  Li67  1  0.45593139  0.90769567  0.01809980  1
  Li  Li68  1  0.60898120  0.25000000  0.49904408  1
  Li  Li69  1  0.89101880  0.75000000  0.99904408  1
  Li  Li70  1  0.39101880  0.75000000  0.50095592  1
  Li  Li71  1  0.10898120  0.25000000  0.00095592  1
