# generated using pymatgen
data_LiF
_symmetry_space_group_name_H-M   'P 1'
_cell_length_a   10.95328430
_cell_length_b   9.97913173
_cell_length_c   7.05184441
_cell_angle_alpha   90.00000000
_cell_angle_beta   90.00000000
_cell_angle_gamma   90.00000000
_symmetry_Int_Tables_number   1
_chemical_formula_structural   LiF
_chemical_formula_sum   'Li24 F24'
_cell_volume   770.79668381
_cell_formula_units_Z   24
loop_
 _symmetry_equiv_pos_site_id
 _symmetry_equiv_pos_as_xyz
  1  'x, y, z'
loop_
 _atom_site_type_symbol
 _atom_site_label
 _atom_site_symmetry_multiplicity
 _atom_site_fract_x
 _atom_site_fract_y
 _atom_site_fract_z
 _atom_site_occupancy
  F  F0  1  0.04203077  0.13982456  0.91111967  1
  F  F1  1  0.45796923  -0.13982456  1.41111967  1
  F  F2  1  -0.04203077  0.63982456  -0.91111967  1
  F  F3  1  0.54203077  0.36017544  -0.41111967  1
  F  F4  1  -0.04203077  -0.13982456  -0.91111967  1
  F  F5  1  0.54203077  0.13982456  -0.41111967  1
  F  F6  1  0.04203077  0.36017544  0.91111967  1
  F  F7  1  0.45796923  0.63982456  1.41111967  1
  F  F8  1  0.34200765  0.87596026  0.41036218  1
  F  F9  1  0.15799235  0.12403974  0.91036218  1
  F  F10  1  0.65799235  0.37596026  0.58963782  1
  F  F11  1  0.84200765  0.62403974  0.08963782  1
  F  F12  1  0.65799235  0.12403974  0.58963782  1
  F  F13  1  0.84200765  0.87596026  0.08963782  1
  F  F14  1  0.34200765  0.62403974  0.41036218  1
  F  F15  1  0.15799235  0.37596026  0.91036218  1
  F  F16  1  0.57249092  0.93600908  0.54576162  1
  F  F17  1  0.92750908  0.06399092  0.04576162  1
  F  F18  1  0.42750908  0.43600908  0.45423838  1
  F  F19  1  0.07249092  0.56399092  0.95423838  1
  F  F20  1  0.42750908  0.06399092  0.45423838  1
  F  F21  1  0.07249092  0.93600908  0.95423838  1
  F  F22  1  0.57249092  0.56399092  0.54576162  1
  F  F23  1  0.92750908  0.43600908  0.04576162  1
  Li  Li24  1  0.14845047  0.25000000  0.74508770  1
  Li  Li25  1  0.35154953  0.75000000  0.24508770  1
  Li  Li26  1  0.85154953  0.75000000  0.25491230  1
  Li  Li27  1  0.64845047  0.25000000  0.75491230  1
  Li  Li28  1  0.40527368  0.25000000  0.75307002  1
  Li  Li29  1  0.09472632  0.75000000  0.25307002  1
  Li  Li30  1  0.59472632  0.75000000  0.24692998  1
  Li  Li31  1  0.90527368  0.25000000  0.74692998  1
  Li  Li32  1  0.80019536  0.25000000  0.95683562  1
  Li  Li33  1  0.69980464  0.75000000  0.45683562  1
  Li  Li34  1  0.19980464  0.75000000  0.04316438  1
  Li  Li35  1  0.30019536  0.25000000  0.54316438  1
  Li  Li36  1  0.00000000  0.00000000  0.50000000  1
  Li  Li37  1  0.50000000  0.00000000  0.00000000  1
  Li  Li38  1  0.00000000  0.50000000  0.50000000  1
  Li  Li39  1  0.50000000  0.50000000  0.00000000  1
  Li  Li40  1  0.00000000  0.00000000  0.00000000  1
  Li  Li41  1  0.50000000  0.00000000  0.50000000  1
  Li  Li42  1  0.00000000  0.50000000  0.00000000  1
  Li  Li43  1  0.50000000  0.50000000  0.50000000  1
  Li  Li44  1  0.15801913  0.25000000  0.26513150  1
  Li  Li45  1  0.34198087  0.75000000  0.76513150  1
  Li  Li46  1  0.84198087  0.75000000  0.73486850  1
  Li  Li47  1  0.65801913  0.25000000  0.23486850  1
