# generated using pymatgen
data_Li4TeF2
_symmetry_space_group_name_H-M   'P 1'
_cell_length_a   12.96230972
_cell_length_b   12.96230972
_cell_length_c   19.65642013
_cell_angle_alpha   90.00000000
_cell_angle_beta   90.00000000
_cell_angle_gamma   90.00000000
_symmetry_Int_Tables_number   1
_chemical_formula_structural   Li4TeF2
_chemical_formula_sum   'Li96 Te24 F48'
_cell_volume   3302.70066797
_cell_formula_units_Z   24
loop_
 _symmetry_equiv_pos_site_id
 _symmetry_equiv_pos_as_xyz
  1  'x, y, z'
loop_
 _atom_site_type_symbol
 _atom_site_label
 _atom_site_symmetry_multiplicity
 _atom_site_fract_x
 _atom_site_fract_y
 _atom_site_fract_z
 _atom_site_occupancy
  F  F0  1  0.91949017  0.00000000  0.00000000  1
  F  F1  1  0.08050983  0.00000000  -0.00000000  1
  F  F2  1  0.00000000  0.91949017  0.00000000  1
  F  F3  1  0.00000000  0.08050983  0.00000000  1
  F  F4  1  0.56925999  0.35475859  0.53071542  1
  F  F5  1  -0.56925999  -0.35475859  0.53071542  1
  F  F6  1  -0.35475859  0.56925999  0.53071542  1
  F  F7  1  0.35475859  -0.56925999  0.53071542  1
  F  F8  1  -0.56925999  0.35475859  -0.53071542  1
  F  F9  1  0.56925999  -0.35475859  -0.53071542  1
  F  F10  1  0.35475859  0.56925999  -0.53071542  1
  F  F11  1  -0.35475859  -0.56925999  -0.53071542  1
  F  F12  1  -0.56925999  -0.35475859  -0.53071542  1
  F  F13  1  0.56925999  0.35475859  -0.53071542  1
  F  F14  1  0.35475859  -0.56925999  -0.53071542  1
  F  F15  1  -0.35475859  0.56925999  -0.53071542  1
  F  F16  1  0.56925999  -0.35475859  0.53071542  1
  F  F17  1  -0.56925999  0.35475859  0.53071542  1
  F  F18  1  -0.35475859  -0.56925999  0.53071542  1
  F  F19  1  0.35475859  0.56925999  0.53071542  1
  F  F20  1  0.66467934  0.66467934  0.50000000  1
  F  F21  1  0.33532066  0.33532066  0.50000000  1
  F  F22  1  0.33532066  0.66467934  0.50000000  1
  F  F23  1  0.66467934  0.33532066  0.50000000  1
  F  F24  1  0.16197885  0.50000000  0.50000000  1
  F  F25  1  0.83802115  0.50000000  0.50000000  1
  F  F26  1  0.50000000  0.16197885  0.50000000  1
  F  F27  1  0.50000000  0.83802115  0.50000000  1
  F  F28  1  0.78931503  0.78931503  0.28151223  1
  F  F29  1  0.21068497  0.21068497  0.28151223  1
  F  F30  1  0.21068497  0.78931503  0.28151223  1
  F  F31  1  0.78931503  0.21068497  0.28151223  1
  F  F32  1  0.21068497  0.78931503  0.71848777  1
  F  F33  1  0.78931503  0.21068497  0.71848777  1
  F  F34  1  0.78931503  0.78931503  0.71848777  1
  F  F35  1  0.21068497  0.21068497  0.71848777  1
  F  F36  1  0.44871664  0.50000000  0.50000000  1
  F  F37  1  0.55128336  0.50000000  0.50000000  1
  F  F38  1  0.50000000  0.44871664  0.50000000  1
  F  F39  1  0.50000000  0.55128336  0.50000000  1
  F  F40  1  0.96553612  0.00000000  0.96879276  1
  F  F41  1  0.03446388  0.00000000  0.96879276  1
  F  F42  1  0.00000000  0.96553612  0.96879276  1
  F  F43  1  0.00000000  0.03446388  0.96879276  1
  F  F44  1  0.03446388  0.00000000  0.03120724  1
  F  F45  1  0.96553612  0.00000000  0.03120724  1
  F  F46  1  0.00000000  0.96553612  0.03120724  1
  F  F47  1  0.00000000  0.03446388  0.03120724  1
  Li  Li48  1  0.90834661  0.77117287  0.03414005  1
  Li  Li49  1  0.09165339  0.22882713  0.03414005  1
  Li  Li50  1  0.22882713  0.90834661  0.03414005  1
  Li  Li51  1  0.77117287  0.09165339  0.03414005  1
  Li  Li52  1  0.09165339  0.77117287  0.96585995  1
  Li  Li53  1  0.90834661  0.22882713  0.96585995  1
  Li  Li54  1  0.77117287  0.90834661  0.96585995  1
  Li  Li55  1  0.22882713  0.09165339  0.96585995  1
  Li  Li56  1  0.09165339  0.22882713  0.96585995  1
  Li  Li57  1  0.90834661  0.77117287  0.96585995  1
  Li  Li58  1  0.77117287  0.09165339  0.96585995  1
  Li  Li59  1  0.22882713  0.90834661  0.96585995  1
  Li  Li60  1  0.90834661  0.22882713  0.03414005  1
  Li  Li61  1  0.09165339  0.77117287  0.03414005  1
  Li  Li62  1  0.22882713  0.09165339  0.03414005  1
  Li  Li63  1  0.77117287  0.90834661  0.03414005  1
  Li  Li64  1  0.40091191  0.40091191  0.50000000  1
  Li  Li65  1  0.59908809  0.59908809  0.50000000  1
  Li  Li66  1  0.59908809  0.40091191  0.50000000  1
  Li  Li67  1  0.40091191  0.59908809  0.50000000  1
  Li  Li68  1  0.78113792  0.40725105  0.96087428  1
  Li  Li69  1  0.21886208  0.59274895  0.96087428  1
  Li  Li70  1  0.59274895  0.78113792  0.96087428  1
  Li  Li71  1  0.40725105  0.21886208  0.96087428  1
  Li  Li72  1  0.21886208  0.40725105  0.03912572  1
  Li  Li73  1  0.78113792  0.59274895  0.03912572  1
  Li  Li74  1  0.40725105  0.78113792  0.03912572  1
  Li  Li75  1  0.59274895  0.21886208  0.03912572  1
  Li  Li76  1  0.21886208  0.59274895  0.03912572  1
  Li  Li77  1  0.78113792  0.40725105  0.03912572  1
  Li  Li78  1  0.40725105  0.21886208  0.03912572  1
  Li  Li79  1  0.59274895  0.78113792  0.03912572  1
  Li  Li80  1  0.78113792  0.59274895  0.96087428  1
  Li  Li81  1  0.21886208  0.40725105  0.96087428  1
  Li  Li82  1  0.59274895  0.21886208  0.96087428  1
  Li  Li83  1  0.40725105  0.78113792  0.96087428  1
  Li  Li84  1  0.08819694  0.37612496  0.34884617  1
  Li  Li85  1  0.91180306  0.62387504  0.34884617  1
  Li  Li86  1  0.62387504  0.08819694  0.34884617  1
  Li  Li87  1  0.37612496  0.91180306  0.34884617  1
  Li  Li88  1  0.91180306  0.37612496  0.65115383  1
  Li  Li89  1  0.08819694  0.62387504  0.65115383  1
  Li  Li90  1  0.37612496  0.08819694  0.65115383  1
  Li  Li91  1  0.62387504  0.91180306  0.65115383  1
  Li  Li92  1  0.91180306  0.62387504  0.65115383  1
  Li  Li93  1  0.08819694  0.37612496  0.65115383  1
  Li  Li94  1  0.37612496  0.91180306  0.65115383  1
  Li  Li95  1  0.62387504  0.08819694  0.65115383  1
  Li  Li96  1  0.08819694  0.62387504  0.34884617  1
  Li  Li97  1  0.91180306  0.37612496  0.34884617  1
  Li  Li98  1  0.62387504  0.91180306  0.34884617  1
  Li  Li99  1  0.37612496  0.08819694  0.34884617  1
  Li  Li100  1  0.11985290  0.70696877  0.24727672  1
  Li  Li101  1  0.88014710  0.29303123  0.24727672  1
  Li  Li102  1  0.29303123  0.11985290  0.24727672  1
  Li  Li103  1  0.70696877  0.88014710  0.24727672  1
  Li  Li104  1  0.88014710  0.70696877  0.75272328  1
  Li  Li105  1  0.11985290  0.29303123  0.75272328  1
  Li  Li106  1  0.70696877  0.11985290  0.75272328  1
  Li  Li107  1  0.29303123  0.88014710  0.75272328  1
  Li  Li108  1  0.88014710  0.29303123  0.75272328  1
  Li  Li109  1  0.11985290  0.70696877  0.75272328  1
  Li  Li110  1  0.70696877  0.88014710  0.75272328  1
  Li  Li111  1  0.29303123  0.11985290  0.75272328  1
  Li  Li112  1  0.11985290  0.29303123  0.24727672  1
  Li  Li113  1  0.88014710  0.70696877  0.24727672  1
  Li  Li114  1  0.29303123  0.88014710  0.24727672  1
  Li  Li115  1  0.70696877  0.11985290  0.24727672  1
  Li  Li116  1  0.79932048  0.00000000  0.00000000  1
  Li  Li117  1  0.20067952  0.00000000  0.00000000  1
  Li  Li118  1  0.00000000  0.79932048  0.00000000  1
  Li  Li119  1  0.00000000  0.20067952  0.00000000  1
  Li  Li120  1  0.23695179  0.00000000  0.08491953  1
  Li  Li121  1  0.76304821  0.00000000  0.08491953  1
  Li  Li122  1  0.00000000  0.23695179  0.08491953  1
  Li  Li123  1  0.00000000  0.76304821  0.08491953  1
  Li  Li124  1  0.76304821  0.00000000  0.91508047  1
  Li  Li125  1  0.23695179  0.00000000  0.91508047  1
  Li  Li126  1  0.00000000  0.23695179  0.91508047  1
  Li  Li127  1  0.00000000  0.76304821  0.91508047  1
  Li  Li128  1  0.05405773  0.50000000  0.27368207  1
  Li  Li129  1  0.94594227  0.50000000  0.27368207  1
  Li  Li130  1  0.50000000  0.05405773  0.27368207  1
  Li  Li131  1  0.50000000  0.94594227  0.27368207  1
  Li  Li132  1  0.94594227  0.50000000  0.72631793  1
  Li  Li133  1  0.05405773  0.50000000  0.72631793  1
  Li  Li134  1  0.50000000  0.05405773  0.72631793  1
  Li  Li135  1  0.50000000  0.94594227  0.72631793  1
  Li  Li136  1  0.37281033  0.37281033  0.00000000  1
  Li  Li137  1  0.62718967  0.62718967  0.00000000  1
  Li  Li138  1  0.62718967  0.37281033  0.00000000  1
  Li  Li139  1  0.37281033  0.62718967  0.00000000  1
  Li  Li140  1  0.00000000  0.50000000  0.00000000  1
  Li  Li141  1  0.50000000  0.00000000  0.00000000  1
  Li  Li142  1  0.00000000  0.00000000  0.90219971  1
  Li  Li143  1  0.00000000  0.00000000  0.09780029  1
  Te  Te144  1  0.00000000  0.50000000  0.91044869  1
  Te  Te145  1  0.50000000  0.00000000  0.91044869  1
  Te  Te146  1  0.00000000  0.50000000  0.08955131  1
  Te  Te147  1  0.50000000  0.00000000  0.08955131  1
  Te  Te148  1  0.62198244  0.27572535  0.67562133  1
  Te  Te149  1  0.37801756  0.72427465  0.67562133  1
  Te  Te150  1  0.72427465  0.62198244  0.67562133  1
  Te  Te151  1  0.27572535  0.37801756  0.67562133  1
  Te  Te152  1  0.37801756  0.27572535  0.32437867  1
  Te  Te153  1  0.62198244  0.72427465  0.32437867  1
  Te  Te154  1  0.27572535  0.62198244  0.32437867  1
  Te  Te155  1  0.72427465  0.37801756  0.32437867  1
  Te  Te156  1  0.37801756  0.72427465  0.32437867  1
  Te  Te157  1  0.62198244  0.27572535  0.32437867  1
  Te  Te158  1  0.27572535  0.37801756  0.32437867  1
  Te  Te159  1  0.72427465  0.62198244  0.32437867  1
  Te  Te160  1  0.62198244  0.72427465  0.67562133  1
  Te  Te161  1  0.37801756  0.27572535  0.67562133  1
  Te  Te162  1  0.72427465  0.37801756  0.67562133  1
  Te  Te163  1  0.27572535  0.62198244  0.67562133  1
  Te  Te164  1  0.40802217  0.50000000  0.00000000  1
  Te  Te165  1  0.59197783  0.50000000  0.00000000  1
  Te  Te166  1  0.50000000  0.40802217  0.00000000  1
  Te  Te167  1  0.50000000  0.59197783  0.00000000  1
