# generated using pymatgen
data_LiF
_symmetry_space_group_name_H-M   'P 1'
_cell_length_a   7.79169763
_cell_length_b   6.65136359
_cell_length_c   14.54403570
_cell_angle_alpha   90.00000000
_cell_angle_beta   90.00000000
_cell_angle_gamma   90.00000000
_symmetry_Int_Tables_number   1
_chemical_formula_structural   LiF
_chemical_formula_sum   'Li24 F24'
_cell_volume   753.75067023
_cell_formula_units_Z   24
loop_
 _symmetry_equiv_pos_site_id
 _symmetry_equiv_pos_as_xyz
  1  'x, y, z'
loop_
 _atom_site_type_symbol
 _atom_site_label
 _atom_site_symmetry_multiplicity
 _atom_site_fract_x
 _atom_site_fract_y
 _atom_site_fract_z
 _atom_site_occupancy
  F  F0  1  0.47312030  0.05489077  0.86051310  1
  F  F1  1  -0.47312030  -0.05489077  0.86051310  1
  F  F2  1  0.02687970  0.55489077  -0.36051310  1
  F  F3  1  0.97312030  0.44510923  -0.36051310  1
  F  F4  1  -0.47312030  -0.05489077  -0.86051310  1
  F  F5  1  0.47312030  0.05489077  -0.86051310  1
  F  F6  1  0.97312030  0.44510923  1.36051310  1
  F  F7  1  0.02687970  0.55489077  1.36051310  1
  F  F8  1  0.14265781  0.12957753  0.36935938  1
  F  F9  1  0.85734219  0.87042247  0.36935938  1
  F  F10  1  0.35734219  0.62957753  0.13064062  1
  F  F11  1  0.64265781  0.37042247  0.13064062  1
  F  F12  1  0.85734219  0.87042247  0.63064062  1
  F  F13  1  0.14265781  0.12957753  0.63064062  1
  F  F14  1  0.64265781  0.37042247  0.86935938  1
  F  F15  1  0.35734219  0.62957753  0.86935938  1
  F  F16  1  0.00456269  0.87789290  0.17755292  1
  F  F17  1  0.99543731  0.12210710  0.17755292  1
  F  F18  1  0.49543731  0.37789290  0.32244708  1
  F  F19  1  0.50456269  0.62210710  0.32244708  1
  F  F20  1  0.99543731  0.12210710  0.82244708  1
  F  F21  1  0.00456269  0.87789290  0.82244708  1
  F  F22  1  0.50456269  0.62210710  0.67755292  1
  F  F23  1  0.49543731  0.37789290  0.67755292  1
  Li  Li24  1  0.77117488  0.23632930  -0.00000000  1
  Li  Li25  1  0.22882512  0.76367070  0.00000000  1
  Li  Li26  1  0.72882512  0.73632930  0.50000000  1
  Li  Li27  1  0.27117488  0.26367070  0.50000000  1
  Li  Li28  1  0.00000000  0.50000000  0.00000000  1
  Li  Li29  1  0.50000000  0.00000000  0.50000000  1
  Li  Li30  1  0.15169743  0.01135983  0.77107154  1
  Li  Li31  1  0.84830257  0.98864017  0.77107154  1
  Li  Li32  1  0.34830257  0.51135983  0.72892846  1
  Li  Li33  1  0.65169743  0.48864017  0.72892846  1
  Li  Li34  1  0.84830257  0.98864017  0.22892846  1
  Li  Li35  1  0.15169743  0.01135983  0.22892846  1
  Li  Li36  1  0.65169743  0.48864017  0.27107154  1
  Li  Li37  1  0.34830257  0.51135983  0.27107154  1
  Li  Li38  1  0.00000000  0.00000000  0.29234926  1
  Li  Li39  1  0.50000000  0.50000000  0.20765074  1
  Li  Li40  1  0.00000000  0.00000000  0.70765074  1
  Li  Li41  1  0.50000000  0.50000000  0.79234926  1
  Li  Li42  1  0.00000000  0.50000000  0.81733761  1
  Li  Li43  1  0.50000000  0.00000000  0.68266239  1
  Li  Li44  1  0.00000000  0.50000000  0.18266239  1
  Li  Li45  1  0.50000000  0.00000000  0.31733761  1
  Li  Li46  1  0.00000000  0.00000000  0.00000000  1
  Li  Li47  1  0.50000000  0.50000000  0.50000000  1
