# generated using pymatgen
data_Li2Si4Te3F12
_symmetry_space_group_name_H-M   'P 1'
_cell_length_a   10.64210215
_cell_length_b   10.64210215
_cell_length_c   10.60475299
_cell_angle_alpha   90.00000000
_cell_angle_beta   90.00000000
_cell_angle_gamma   90.00000000
_symmetry_Int_Tables_number   1
_chemical_formula_structural   Li2Si4Te3F12
_chemical_formula_sum   'Li8 Si16 Te12 F48'
_cell_volume   1201.03428142
_cell_formula_units_Z   4
loop_
 _symmetry_equiv_pos_site_id
 _symmetry_equiv_pos_as_xyz
  1  'x, y, z'
loop_
 _atom_site_type_symbol
 _atom_site_label
 _atom_site_symmetry_multiplicity
 _atom_site_fract_x
 _atom_site_fract_y
 _atom_site_fract_z
 _atom_site_occupancy
  F  F0  1  0.29674972  0.02489153  0.91771884  1
  F  F1  1  0.20325028  -0.02489153  1.41771884  1
  F  F2  1  0.22510847  1.04674972  1.16771884  1
  F  F3  1  0.27489153  -0.04674972  1.66771884  1
  F  F4  1  0.20325028  0.02489153  -0.41771884  1
  F  F5  1  0.29674972  -0.02489153  -0.91771884  1
  F  F6  1  0.27489153  1.04674972  -0.66771884  1
  F  F7  1  0.22510847  -0.04674972  -0.16771884  1
  F  F8  1  -0.29674972  -0.02489153  -0.91771884  1
  F  F9  1  0.79674972  0.02489153  -0.41771884  1
  F  F10  1  0.77489153  -0.04674972  -0.16771884  1
  F  F11  1  0.72510847  1.04674972  -0.66771884  1
  F  F12  1  0.79674972  -0.02489153  1.41771884  1
  F  F13  1  -0.29674972  0.02489153  0.91771884  1
  F  F14  1  0.72510847  -0.04674972  1.66771884  1
  F  F15  1  0.77489153  1.04674972  1.16771884  1
  F  F16  1  0.79674972  0.52489153  1.41771884  1
  F  F17  1  0.70325028  0.47510847  1.91771884  1
  F  F18  1  0.72510847  1.54674972  1.66771884  1
  F  F19  1  0.77489153  0.45325028  2.16771884  1
  F  F20  1  0.70325028  0.52489153  0.08228116  1
  F  F21  1  0.79674972  0.47510847  -0.41771884  1
  F  F22  1  0.77489153  1.54674972  -0.16771884  1
  F  F23  1  0.72510847  0.45325028  0.33228116  1
  F  F24  1  0.20325028  0.47510847  -0.41771884  1
  F  F25  1  1.29674972  0.52489153  0.08228116  1
  F  F26  1  1.27489153  0.45325028  0.33228116  1
  F  F27  1  1.22510847  1.54674972  -0.16771884  1
  F  F28  1  1.29674972  0.47510847  1.91771884  1
  F  F29  1  0.20325028  0.52489153  1.41771884  1
  F  F30  1  1.22510847  0.45325028  2.16771884  1
  F  F31  1  1.27489153  1.54674972  1.66771884  1
  F  F32  1  0.00000000  0.01349067  0.46890545  1
  F  F33  1  0.50000000  0.98650933  0.96890545  1
  F  F34  1  0.23650933  0.75000000  0.71890545  1
  F  F35  1  0.26349067  0.25000000  0.21890545  1
  F  F36  1  0.50000000  0.01349067  0.03109455  1
  F  F37  1  0.00000000  0.98650933  0.53109455  1
  F  F38  1  0.26349067  0.75000000  0.78109455  1
  F  F39  1  0.23650933  0.25000000  0.28109455  1
  F  F40  1  0.50000000  0.51349067  0.96890545  1
  F  F41  1  0.00000000  0.48650933  0.46890545  1
  F  F42  1  0.73650933  0.25000000  0.21890545  1
  F  F43  1  0.76349067  0.75000000  0.71890545  1
  F  F44  1  0.00000000  0.51349067  0.53109455  1
  F  F45  1  0.50000000  0.48650933  0.03109455  1
  F  F46  1  0.76349067  0.25000000  0.28109455  1
  F  F47  1  0.73650933  0.75000000  0.78109455  1
  Li  Li48  1  0.00000000  0.00000000  0.00000000  1
  Li  Li49  1  0.50000000  0.00000000  0.50000000  1
  Li  Li50  1  0.25000000  0.75000000  0.25000000  1
  Li  Li51  1  0.25000000  0.25000000  0.75000000  1
  Li  Li52  1  0.50000000  0.50000000  0.50000000  1
  Li  Li53  1  0.00000000  0.50000000  0.00000000  1
  Li  Li54  1  0.75000000  0.25000000  0.75000000  1
  Li  Li55  1  0.75000000  0.75000000  0.25000000  1
  Si  Si56  1  0.12546312  0.00000000  -0.00000000  1
  Si  Si57  1  0.37453688  -0.00000000  0.50000000  1
  Si  Si58  1  0.25000000  0.87546312  0.25000000  1
  Si  Si59  1  0.25000000  0.12453688  0.75000000  1
  Si  Si60  1  0.87453688  -0.00000000  -0.00000000  1
  Si  Si61  1  0.62546312  0.00000000  0.50000000  1
  Si  Si62  1  0.75000000  0.12453688  0.75000000  1
  Si  Si63  1  0.75000000  0.87546312  0.25000000  1
  Si  Si64  1  0.62546312  0.50000000  0.50000000  1
  Si  Si65  1  0.87453688  0.50000000  -0.00000000  1
  Si  Si66  1  0.75000000  0.37546312  0.75000000  1
  Si  Si67  1  0.75000000  0.62453688  0.25000000  1
  Si  Si68  1  0.37453688  0.50000000  0.50000000  1
  Si  Si69  1  0.12546312  0.50000000  0.00000000  1
  Si  Si70  1  0.25000000  0.62453688  0.25000000  1
  Si  Si71  1  0.25000000  0.37546312  0.75000000  1
  Te  Te72  1  0.00000000  0.25000000  0.28383829  1
  Te  Te73  1  0.00000000  0.75000000  0.53383829  1
  Te  Te74  1  0.50000000  0.25000000  0.21616171  1
  Te  Te75  1  0.50000000  0.75000000  0.96616171  1
  Te  Te76  1  0.50000000  0.75000000  0.78383829  1
  Te  Te77  1  0.50000000  0.25000000  0.03383829  1
  Te  Te78  1  0.00000000  0.75000000  0.71616171  1
  Te  Te79  1  0.00000000  0.25000000  0.46616171  1
  Te  Te80  1  0.00000000  0.75000000  0.12500000  1
  Te  Te81  1  0.50000000  0.75000000  0.37500000  1
  Te  Te82  1  0.50000000  0.25000000  0.62500000  1
  Te  Te83  1  0.00000000  0.25000000  0.87500000  1
