# generated using pymatgen
data_Li2Si4Te3F12
_symmetry_space_group_name_H-M   'P 1'
_cell_length_a   10.71594902
_cell_length_b   11.75557495
_cell_length_c   9.83371945
_cell_angle_alpha   90.00000000
_cell_angle_beta   90.00000000
_cell_angle_gamma   90.00000000
_symmetry_Int_Tables_number   1
_chemical_formula_structural   Li2Si4Te3F12
_chemical_formula_sum   'Li8 Si16 Te12 F48'
_cell_volume   1238.77470247
_cell_formula_units_Z   4
loop_
 _symmetry_equiv_pos_site_id
 _symmetry_equiv_pos_as_xyz
  1  'x, y, z'
loop_
 _atom_site_type_symbol
 _atom_site_label
 _atom_site_symmetry_multiplicity
 _atom_site_fract_x
 _atom_site_fract_y
 _atom_site_fract_z
 _atom_site_occupancy
  F  F0  1  0.84474715  0.45294660  0.00000000  1
  F  F1  1  0.15525285  0.54705340  0.00000000  1
  F  F2  1  0.65525285  0.95294660  0.50000000  1
  F  F3  1  0.34474715  0.04705340  0.50000000  1
  F  F4  1  0.84899227  0.05905763  0.38568167  1
  F  F5  1  0.15100773  0.94094237  0.38568167  1
  F  F6  1  0.65100773  0.55905763  0.11431833  1
  F  F7  1  0.34899227  0.44094237  0.11431833  1
  F  F8  1  0.15100773  0.94094237  0.61431833  1
  F  F9  1  0.84899227  0.05905763  0.61431833  1
  F  F10  1  0.34899227  0.44094237  0.88568167  1
  F  F11  1  0.65100773  0.55905763  0.88568167  1
  F  F12  1  0.43526117  0.68268895  0.79069130  1
  F  F13  1  0.56473883  0.31731105  0.79069130  1
  F  F14  1  0.06473883  0.18268895  0.70930870  1
  F  F15  1  0.93526117  0.81731105  0.70930870  1
  F  F16  1  0.56473883  0.31731105  0.20930870  1
  F  F17  1  0.43526117  0.68268895  0.20930870  1
  F  F18  1  0.93526117  0.81731105  0.29069130  1
  F  F19  1  0.06473883  0.18268895  0.29069130  1
  F  F20  1  0.03757154  0.24043383  0.19055576  1
  F  F21  1  0.96242846  0.75956617  0.19055576  1
  F  F22  1  0.46242846  0.74043383  0.30944424  1
  F  F23  1  0.53757154  0.25956617  0.30944424  1
  F  F24  1  0.96242846  0.75956617  0.80944424  1
  F  F25  1  0.03757154  0.24043383  0.80944424  1
  F  F26  1  0.53757154  0.25956617  0.69055576  1
  F  F27  1  0.46242846  0.74043383  0.69055576  1
  F  F28  1  0.14283409  0.28628588  0.00000000  1
  F  F29  1  0.85716591  0.71371412  0.00000000  1
  F  F30  1  0.35716591  0.78628588  0.50000000  1
  F  F31  1  0.64283409  0.21371412  0.50000000  1
  F  F32  1  0.00000000  0.50000000  0.29220530  1
  F  F33  1  0.50000000  0.00000000  0.20779470  1
  F  F34  1  0.00000000  0.50000000  0.70779470  1
  F  F35  1  0.50000000  0.00000000  0.79220530  1
  F  F36  1  0.07717028  0.24080376  0.76534545  1
  F  F37  1  0.92282972  0.75919624  0.76534545  1
  F  F38  1  0.42282972  0.74080376  0.73465455  1
  F  F39  1  0.57717028  0.25919624  0.73465455  1
  F  F40  1  0.92282972  0.75919624  0.23465455  1
  F  F41  1  0.07717028  0.24080376  0.23465455  1
  F  F42  1  0.57717028  0.25919624  0.26534545  1
  F  F43  1  0.42282972  0.74080376  0.26534545  1
  F  F44  1  0.00000000  0.50000000  0.78908485  1
  F  F45  1  0.50000000  0.00000000  0.71091515  1
  F  F46  1  0.00000000  0.50000000  0.21091515  1
  F  F47  1  0.50000000  0.00000000  0.28908485  1
  Li  Li48  1  0.16544268  0.06658230  0.16298221  1
  Li  Li49  1  0.83455732  0.93341770  0.16298221  1
  Li  Li50  1  0.33455732  0.56658230  0.33701779  1
  Li  Li51  1  0.66544268  0.43341770  0.33701779  1
  Li  Li52  1  0.83455732  0.93341770  0.83701779  1
  Li  Li53  1  0.16544268  0.06658230  0.83701779  1
  Li  Li54  1  0.66544268  0.43341770  0.66298221  1
  Li  Li55  1  0.33455732  0.56658230  0.66298221  1
  Si  Si56  1  0.00000000  0.00000000  0.00000000  1
  Si  Si57  1  0.50000000  0.50000000  0.50000000  1
  Si  Si58  1  0.27257416  0.67699555  0.20436009  1
  Si  Si59  1  -0.27257416  -0.67699555  0.20436009  1
  Si  Si60  1  0.22742584  1.17699555  0.29563991  1
  Si  Si61  1  0.77257416  -0.17699555  0.29563991  1
  Si  Si62  1  -0.27257416  -0.67699555  -0.20436009  1
  Si  Si63  1  0.27257416  0.67699555  -0.20436009  1
  Si  Si64  1  0.77257416  -0.17699555  0.70436009  1
  Si  Si65  1  0.22742584  1.17699555  0.70436009  1
  Si  Si66  1  0.10080018  0.84841749  0.00000000  1
  Si  Si67  1  0.89919982  0.15158251  0.00000000  1
  Si  Si68  1  0.39919982  0.34841749  0.50000000  1
  Si  Si69  1  0.60080018  0.65158251  0.50000000  1
  Si  Si70  1  0.00000000  0.50000000  0.00000000  1
  Si  Si71  1  0.50000000  0.00000000  0.50000000  1
  Te  Te72  1  0.53194048  0.56446954  0.64991358  1
  Te  Te73  1  0.46805952  0.43553046  0.64991358  1
  Te  Te74  1  0.96805952  0.06446954  0.85008642  1
  Te  Te75  1  0.03194048  0.93553046  0.85008642  1
  Te  Te76  1  0.46805952  0.43553046  0.35008642  1
  Te  Te77  1  0.53194048  0.56446954  0.35008642  1
  Te  Te78  1  0.03194048  0.93553046  0.14991358  1
  Te  Te79  1  0.96805952  0.06446954  0.14991358  1
  Te  Te80  1  0.47806564  0.68246183  0.00000000  1
  Te  Te81  1  0.52193436  0.31753817  0.00000000  1
  Te  Te82  1  0.02193436  0.18246183  0.50000000  1
  Te  Te83  1  0.97806564  0.81753817  0.50000000  1
