# generated using pymatgen
data_LiF
_symmetry_space_group_name_H-M   'P 1'
_cell_length_a   13.49693058
_cell_length_b   7.43836762
_cell_length_c   9.65465374
_cell_angle_alpha   90.00000000
_cell_angle_beta   90.00000000
_cell_angle_gamma   90.00000000
_symmetry_Int_Tables_number   1
_chemical_formula_structural   LiF
_chemical_formula_sum   'Li36 F36'
_cell_volume   969.28023076
_cell_formula_units_Z   36
loop_
 _symmetry_equiv_pos_site_id
 _symmetry_equiv_pos_as_xyz
  1  'x, y, z'
loop_
 _atom_site_type_symbol
 _atom_site_label
 _atom_site_symmetry_multiplicity
 _atom_site_fract_x
 _atom_site_fract_y
 _atom_site_fract_z
 _atom_site_occupancy
  F  F0  1  0.18385794  0.34022696  0.79716170  1
  F  F1  1  0.31614206  0.65977304  0.29716170  1
  F  F2  1  0.81614206  0.84022696  0.20283830  1
  F  F3  1  0.68385794  0.15977304  0.70283830  1
  F  F4  1  0.81614206  0.65977304  0.20283830  1
  F  F5  1  0.68385794  0.34022696  0.70283830  1
  F  F6  1  0.18385794  0.15977304  0.79716170  1
  F  F7  1  0.31614206  0.84022696  0.29716170  1
  F  F8  1  0.55455408  0.59082329  0.23949025  1
  F  F9  1  0.94544592  0.40917671  0.73949025  1
  F  F10  1  0.44544592  0.09082329  0.76050975  1
  F  F11  1  0.05455408  0.90917671  0.26050975  1
  F  F12  1  0.44544592  0.40917671  0.76050975  1
  F  F13  1  0.05455408  0.59082329  0.26050975  1
  F  F14  1  0.55455408  0.90917671  0.23949025  1
  F  F15  1  0.94544592  0.09082329  0.73949025  1
  F  F16  1  0.20844625  0.55051274  0.44081225  1
  F  F17  1  0.29155375  0.44948726  0.94081225  1
  F  F18  1  0.79155375  0.05051274  0.55918775  1
  F  F19  1  0.70844625  0.94948726  0.05918775  1
  F  F20  1  0.79155375  0.44948726  0.55918775  1
  F  F21  1  0.70844625  0.55051274  0.05918775  1
  F  F22  1  0.20844625  0.94948726  0.44081225  1
  F  F23  1  0.29155375  0.05051274  0.94081225  1
  F  F24  1  0.91720200  0.90832983  0.44632916  1
  F  F25  1  0.58279800  0.09167017  0.94632916  1
  F  F26  1  0.08279800  0.40832983  0.55367084  1
  F  F27  1  0.41720200  0.59167017  0.05367084  1
  F  F28  1  0.08279800  0.09167017  0.55367084  1
  F  F29  1  0.41720200  0.90832983  0.05367084  1
  F  F30  1  0.91720200  0.59167017  0.44632916  1
  F  F31  1  0.58279800  0.40832983  0.94632916  1
  F  F32  1  0.94172746  0.25000000  0.33839334  1
  F  F33  1  0.55827254  0.75000000  0.83839334  1
  F  F34  1  0.05827254  0.75000000  0.66160666  1
  F  F35  1  0.44172746  0.25000000  0.16160666  1
  Li  Li36  1  0.69256676  0.25000000  0.39118850  1
  Li  Li37  1  0.80743324  0.75000000  0.89118850  1
  Li  Li38  1  0.30743324  0.75000000  0.60881150  1
  Li  Li39  1  0.19256676  0.25000000  0.10881150  1
  Li  Li40  1  0.61822427  0.92837043  0.34003552  1
  Li  Li41  1  -0.11822427  -0.92837043  0.84003552  1
  Li  Li42  1  -0.61822427  1.42837043  -0.34003552  1
  Li  Li43  1  1.11822427  -0.42837043  0.15996448  1
  Li  Li44  1  -0.61822427  -0.92837043  -0.34003552  1
  Li  Li45  1  1.11822427  0.92837043  0.15996448  1
  Li  Li46  1  0.61822427  -0.42837043  0.34003552  1
  Li  Li47  1  -0.11822427  1.42837043  0.84003552  1
  Li  Li48  1  0.00000000  0.00000000  0.00000000  1
  Li  Li49  1  0.50000000  -0.00000000  0.50000000  1
  Li  Li50  1  0.00000000  0.50000000  0.00000000  1
  Li  Li51  1  0.50000000  0.50000000  0.50000000  1
  Li  Li52  1  0.36563050  0.98542954  0.54487655  1
  Li  Li53  1  0.13436950  0.01457046  0.04487655  1
  Li  Li54  1  0.63436950  0.48542954  0.45512345  1
  Li  Li55  1  0.86563050  0.51457046  0.95512345  1
  Li  Li56  1  0.63436950  0.01457046  0.45512345  1
  Li  Li57  1  0.86563050  0.98542954  0.95512345  1
  Li  Li58  1  0.36563050  0.51457046  0.54487655  1
  Li  Li59  1  0.13436950  0.48542954  0.04487655  1
  Li  Li60  1  0.00000000  0.00000000  0.50000000  1
  Li  Li61  1  0.50000000  -0.00000000  0.00000000  1
  Li  Li62  1  0.00000000  0.50000000  0.50000000  1
  Li  Li63  1  0.50000000  0.50000000  0.00000000  1
  Li  Li64  1  0.06211640  0.25000000  0.65866493  1
  Li  Li65  1  0.43788360  0.75000000  0.15866493  1
  Li  Li66  1  0.93788360  0.75000000  0.34133507  1
  Li  Li67  1  0.56211640  0.25000000  0.84133507  1
  Li  Li68  1  0.68841054  0.25000000  0.91466110  1
  Li  Li69  1  0.81158946  0.75000000  0.41466110  1
  Li  Li70  1  0.31158946  0.75000000  0.08533890  1
  Li  Li71  1  0.18841054  0.25000000  0.58533890  1
