# generated using pymatgen
data_LiF
_symmetry_space_group_name_H-M   'P 1'
_cell_length_a   11.13049776
_cell_length_b   6.99874601
_cell_length_c   10.68243920
_cell_angle_alpha   90.00000000
_cell_angle_beta   90.00000000
_cell_angle_gamma   90.00000000
_symmetry_Int_Tables_number   1
_chemical_formula_structural   LiF
_chemical_formula_sum   'Li24 F24'
_cell_volume   832.15695787
_cell_formula_units_Z   24
loop_
 _symmetry_equiv_pos_site_id
 _symmetry_equiv_pos_as_xyz
  1  'x, y, z'
loop_
 _atom_site_type_symbol
 _atom_site_label
 _atom_site_symmetry_multiplicity
 _atom_site_fract_x
 _atom_site_fract_y
 _atom_site_fract_z
 _atom_site_occupancy
  F  F0  1  0.34631750  0.25000000  0.37438323  1
  F  F1  1  0.15368250  0.75000000  0.87438323  1
  F  F2  1  0.65368250  0.75000000  0.62561677  1
  F  F3  1  0.84631750  0.25000000  0.12561677  1
  F  F4  1  0.62901511  0.94050096  0.05243240  1
  F  F5  1  0.87098489  0.05949904  0.55243240  1
  F  F6  1  0.37098489  0.44050096  0.94756760  1
  F  F7  1  0.12901511  0.55949904  0.44756760  1
  F  F8  1  0.37098489  0.05949904  0.94756760  1
  F  F9  1  0.12901511  0.94050096  0.44756760  1
  F  F10  1  0.62901511  0.55949904  0.05243240  1
  F  F11  1  0.87098489  0.44050096  0.55243240  1
  F  F12  1  0.28290048  0.60802283  0.00838728  1
  F  F13  1  0.21709952  0.39197717  0.50838728  1
  F  F14  1  0.71709952  0.10802283  0.99161272  1
  F  F15  1  0.78290048  0.89197717  0.49161272  1
  F  F16  1  0.71709952  0.39197717  0.99161272  1
  F  F17  1  0.78290048  0.60802283  0.49161272  1
  F  F18  1  0.28290048  0.89197717  0.00838728  1
  F  F19  1  0.21709952  0.10802283  0.50838728  1
  F  F20  1  0.63443161  0.25000000  0.58932276  1
  F  F21  1  0.86556839  0.75000000  0.08932276  1
  F  F22  1  0.36556839  0.75000000  0.41067724  1
  F  F23  1  0.13443161  0.25000000  0.91067724  1
  Li  Li24  1  0.00000000  0.00000000  0.00000000  1
  Li  Li25  1  0.50000000  0.00000000  0.50000000  1
  Li  Li26  1  0.00000000  0.50000000  -0.00000000  1
  Li  Li27  1  0.50000000  0.50000000  0.50000000  1
  Li  Li28  1  0.85595226  0.52357867  0.20346803  1
  Li  Li29  1  -0.35595226  -0.52357867  0.70346803  1
  Li  Li30  1  -0.85595226  1.02357867  -0.20346803  1
  Li  Li31  1  1.35595226  -0.02357867  0.29653197  1
  Li  Li32  1  -0.85595226  -0.52357867  -0.20346803  1
  Li  Li33  1  1.35595226  0.52357867  0.29653197  1
  Li  Li34  1  0.85595226  -0.02357867  0.20346803  1
  Li  Li35  1  -0.35595226  1.02357867  0.70346803  1
  Li  Li36  1  0.51971512  0.25000000  0.42588720  1
  Li  Li37  1  0.98028488  0.75000000  0.92588720  1
  Li  Li38  1  0.48028488  0.75000000  0.57411280  1
  Li  Li39  1  0.01971512  0.25000000  0.07411280  1
  Li  Li40  1  0.15868748  0.25000000  0.67027258  1
  Li  Li41  1  0.34131252  0.75000000  0.17027258  1
  Li  Li42  1  0.84131252  0.75000000  0.32972742  1
  Li  Li43  1  0.65868748  0.25000000  0.82972742  1
  Li  Li44  1  0.00000000  0.00000000  0.50000000  1
  Li  Li45  1  0.50000000  0.00000000  0.00000000  1
  Li  Li46  1  0.00000000  0.50000000  0.50000000  1
  Li  Li47  1  0.50000000  0.50000000  0.00000000  1
