# generated using pymatgen
data_LiF
_symmetry_space_group_name_H-M   'P 1'
_cell_length_a   6.40349737
_cell_length_b   9.99812891
_cell_length_c   6.75826381
_cell_angle_alpha   90.00000000
_cell_angle_beta   90.00000000
_cell_angle_gamma   90.00000000
_symmetry_Int_Tables_number   1
_chemical_formula_structural   LiF
_chemical_formula_sum   'Li24 F24'
_cell_volume   432.68427038
_cell_formula_units_Z   24
loop_
 _symmetry_equiv_pos_site_id
 _symmetry_equiv_pos_as_xyz
  1  'x, y, z'
loop_
 _atom_site_type_symbol
 _atom_site_label
 _atom_site_symmetry_multiplicity
 _atom_site_fract_x
 _atom_site_fract_y
 _atom_site_fract_z
 _atom_site_occupancy
  F  F0  1  0.00000000  0.50000000  0.00000000  1
  F  F1  1  0.50000000  0.00000000  0.00000000  1
  F  F2  1  0.38623362  0.41457814  0.94013560  1
  F  F3  1  0.61376638  0.58542186  0.94013560  1
  F  F4  1  0.11376638  0.91457814  0.05986440  1
  F  F5  1  0.88623362  0.08542186  0.05986440  1
  F  F6  1  0.61376638  0.58542186  0.05986440  1
  F  F7  1  0.38623362  0.41457814  0.05986440  1
  F  F8  1  0.88623362  0.08542186  0.94013560  1
  F  F9  1  0.11376638  0.91457814  0.94013560  1
  F  F10  1  0.51436214  0.56439198  0.74975956  1
  F  F11  1  0.48563786  0.43560802  0.74975956  1
  F  F12  1  0.98563786  0.06439198  0.25024044  1
  F  F13  1  0.01436214  0.93560802  0.25024044  1
  F  F14  1  0.48563786  0.43560802  0.25024044  1
  F  F15  1  0.51436214  0.56439198  0.25024044  1
  F  F16  1  0.01436214  0.93560802  0.74975956  1
  F  F17  1  0.98563786  0.06439198  0.74975956  1
  F  F18  1  0.00000000  0.50000000  0.50000000  1
  F  F19  1  0.50000000  0.00000000  0.50000000  1
  F  F20  1  0.00000000  0.50000000  0.26026087  1
  F  F21  1  0.50000000  0.00000000  0.73973913  1
  F  F22  1  0.00000000  0.50000000  0.73973913  1
  F  F23  1  0.50000000  0.00000000  0.26026087  1
  Li  Li24  1  0.80528841  0.94632466  0.72738494  1
  Li  Li25  1  -0.80528841  -0.94632466  0.72738494  1
  Li  Li26  1  -0.30528841  1.44632466  -0.72738494  1
  Li  Li27  1  1.30528841  -0.44632466  -0.72738494  1
  Li  Li28  1  -0.80528841  -0.94632466  -0.72738494  1
  Li  Li29  1  0.80528841  0.94632466  -0.72738494  1
  Li  Li30  1  1.30528841  -0.44632466  0.72738494  1
  Li  Li31  1  -0.30528841  1.44632466  0.72738494  1
  Li  Li32  1  0.81558926  0.59253570  0.00000000  1
  Li  Li33  1  0.18441074  0.40746430  0.00000000  1
  Li  Li34  1  0.68441074  0.09253570  0.00000000  1
  Li  Li35  1  0.31558926  0.90746430  0.00000000  1
  Li  Li36  1  0.00000000  0.00000000  0.50000000  1
  Li  Li37  1  0.50000000  0.50000000  0.50000000  1
  Li  Li38  1  0.00377292  0.39383142  0.39485104  1
  Li  Li39  1  0.99622708  0.60616858  0.39485104  1
  Li  Li40  1  0.49622708  0.89383142  0.60514896  1
  Li  Li41  1  0.50377292  0.10616858  0.60514896  1
  Li  Li42  1  0.99622708  0.60616858  0.60514896  1
  Li  Li43  1  0.00377292  0.39383142  0.60514896  1
  Li  Li44  1  0.50377292  0.10616858  0.39485104  1
  Li  Li45  1  0.49622708  0.89383142  0.39485104  1
  Li  Li46  1  0.00000000  0.00000000  0.00000000  1
  Li  Li47  1  0.50000000  0.50000000  -0.00000000  1
