# generated using pymatgen
data_Li3Y2P3Se2
_symmetry_space_group_name_H-M   'P 1'
_cell_length_a   5.91095199
_cell_length_b   6.26229325
_cell_length_c   7.53059321
_cell_angle_alpha   93.12866678
_cell_angle_beta   96.81358581
_cell_angle_gamma   102.56661099
_symmetry_Int_Tables_number   1
_chemical_formula_structural   Li3Y2P3Se2
_chemical_formula_sum   'Li3 Y2 P3 Se2'
_cell_volume   269.22281576
_cell_formula_units_Z   1
loop_
 _symmetry_equiv_pos_site_id
 _symmetry_equiv_pos_as_xyz
  1  'x, y, z'
loop_
 _atom_site_type_symbol
 _atom_site_label
 _atom_site_symmetry_multiplicity
 _atom_site_fract_x
 _atom_site_fract_y
 _atom_site_fract_z
 _atom_site_occupancy
  Se  Se0  1  0.00000000  0.00000000  0.00000000  1
  Se  Se1  1  0.50000000  0.50000000  0.50000000  1
  P  P2  1  0.25000000  0.25000000  0.25000000  1
  P  P3  1  0.75000000  0.25000000  0.00000000  1
  P  P4  1  0.25000000  0.75000000  0.50000000  1
  Li  Li5  1  0.95802326  0.64463402  0.12271508  1
  Li  Li6  1  0.37502443  0.60188387  0.54112758  1
  Li  Li7  1  0.47516003  0.07972491  0.65432851  1
  Y  Y8  1  0.16165701  0.11100738  0.11290547  1
  Y  Y9  1  0.03891700  0.67597165  0.43822784  1
