# generated using pymatgen
data_LiF
_symmetry_space_group_name_H-M   'P 1'
_cell_length_a   11.64716566
_cell_length_b   11.64716566
_cell_length_c   17.98680438
_cell_angle_alpha   90.00000000
_cell_angle_beta   90.00000000
_cell_angle_gamma   120.00000000
_symmetry_Int_Tables_number   1
_chemical_formula_structural   LiF
_chemical_formula_sum   'Li60 F60'
_cell_volume   2113.12480620
_cell_formula_units_Z   60
loop_
 _symmetry_equiv_pos_site_id
 _symmetry_equiv_pos_as_xyz
  1  'x, y, z'
loop_
 _atom_site_type_symbol
 _atom_site_label
 _atom_site_symmetry_multiplicity
 _atom_site_fract_x
 _atom_site_fract_y
 _atom_site_fract_z
 _atom_site_occupancy
  F  F0  1  0.66291073  0.00000000  0.25000000  1
  F  F1  1  0.00000000  0.66291073  0.25000000  1
  F  F2  1  0.33708927  0.33708927  0.25000000  1
  F  F3  1  0.33708927  -0.00000000  0.75000000  1
  F  F4  1  0.00000000  0.33708927  0.75000000  1
  F  F5  1  0.66291073  0.66291073  0.75000000  1
  F  F6  1  0.32957739  0.33333333  0.58333333  1
  F  F7  1  0.66666667  0.99624406  0.58333333  1
  F  F8  1  0.00375594  0.67042261  0.58333333  1
  F  F9  1  0.00375594  0.33333333  0.08333333  1
  F  F10  1  0.66666667  0.67042261  0.08333333  1
  F  F11  1  0.32957739  0.99624406  0.08333333  1
  F  F12  1  0.99624406  0.66666667  0.91666667  1
  F  F13  1  0.33333333  0.32957739  0.91666667  1
  F  F14  1  0.67042261  0.00375594  0.91666667  1
  F  F15  1  0.67042261  0.66666667  0.41666667  1
  F  F16  1  0.33333333  0.00375594  0.41666667  1
  F  F17  1  0.99624406  0.32957739  0.41666667  1
  F  F18  1  0.50000000  0.00000000  0.00000000  1
  F  F19  1  0.00000000  0.50000000  -0.00000000  1
  F  F20  1  0.50000000  0.50000000  0.00000000  1
  F  F21  1  0.00000000  0.50000000  0.50000000  1
  F  F22  1  0.50000000  0.00000000  0.50000000  1
  F  F23  1  0.50000000  0.50000000  0.50000000  1
  F  F24  1  0.16666667  0.33333333  0.33333333  1
  F  F25  1  0.66666667  0.83333333  0.33333333  1
  F  F26  1  0.16666667  0.83333333  0.33333333  1
  F  F27  1  0.66666667  0.83333333  0.83333333  1
  F  F28  1  0.16666667  0.33333333  0.83333333  1
  F  F29  1  0.16666667  0.83333333  0.83333333  1
  F  F30  1  0.83333333  0.66666667  0.66666667  1
  F  F31  1  0.33333333  0.16666667  0.66666667  1
  F  F32  1  0.83333333  0.16666667  0.66666667  1
  F  F33  1  0.33333333  0.16666667  0.16666667  1
  F  F34  1  0.83333333  0.66666667  0.16666667  1
  F  F35  1  0.83333333  0.16666667  0.16666667  1
  F  F36  1  0.00000000  0.00000000  0.00000000  1
  F  F37  1  0.00000000  0.00000000  0.50000000  1
  F  F38  1  0.66666667  0.33333333  0.33333333  1
  F  F39  1  0.66666667  0.33333333  0.83333333  1
  F  F40  1  0.33333333  0.66666667  0.66666667  1
  F  F41  1  0.33333333  0.66666667  0.16666667  1
  F  F42  1  0.36536030  0.00000000  0.25000000  1
  F  F43  1  0.00000000  0.36536030  0.25000000  1
  F  F44  1  0.63463970  0.63463970  0.25000000  1
  F  F45  1  0.63463970  0.00000000  0.75000000  1
  F  F46  1  0.00000000  0.63463970  0.75000000  1
  F  F47  1  0.36536030  0.36536030  0.75000000  1
  F  F48  1  0.03202696  0.33333333  0.58333333  1
  F  F49  1  0.66666667  0.69869363  0.58333333  1
  F  F50  1  0.30130637  0.96797304  0.58333333  1
  F  F51  1  0.30130637  0.33333333  0.08333333  1
  F  F52  1  0.66666667  0.96797304  0.08333333  1
  F  F53  1  0.03202696  0.69869363  0.08333333  1
  F  F54  1  0.69869363  0.66666667  0.91666667  1
  F  F55  1  0.33333333  0.03202696  0.91666667  1
  F  F56  1  0.96797304  0.30130637  0.91666667  1
  F  F57  1  0.96797304  0.66666667  0.41666667  1
  F  F58  1  0.33333333  0.30130637  0.41666667  1
  F  F59  1  0.69869363  0.03202696  0.41666667  1
  Li  Li60  1  0.56683304  0.00000000  0.25000000  1
  Li  Li61  1  0.00000000  0.56683304  0.25000000  1
  Li  Li62  1  0.43316696  0.43316696  0.25000000  1
  Li  Li63  1  0.43316696  0.00000000  0.75000000  1
  Li  Li64  1  0.00000000  0.43316696  0.75000000  1
  Li  Li65  1  0.56683304  0.56683304  0.75000000  1
  Li  Li66  1  0.23349971  0.33333333  0.58333333  1
  Li  Li67  1  0.66666667  0.90016638  0.58333333  1
  Li  Li68  1  0.09983362  0.76650029  0.58333333  1
  Li  Li69  1  0.09983362  0.33333333  0.08333333  1
  Li  Li70  1  0.66666667  0.76650029  0.08333333  1
  Li  Li71  1  0.23349971  0.90016638  0.08333333  1
  Li  Li72  1  0.90016638  0.66666667  0.91666667  1
  Li  Li73  1  0.33333333  0.23349971  0.91666667  1
  Li  Li74  1  0.76650029  0.09983362  0.91666667  1
  Li  Li75  1  0.76650029  0.66666667  0.41666667  1
  Li  Li76  1  0.33333333  0.09983362  0.41666667  1
  Li  Li77  1  0.90016638  0.23349971  0.41666667  1
  Li  Li78  1  0.46399268  0.81516682  0.52967743  1
  Li  Li79  1  -0.81516682  -0.35117414  0.52967743  1
  Li  Li80  1  0.35117414  -0.46399268  0.52967743  1
  Li  Li81  1  0.81516682  0.46399268  -0.02967743  1
  Li  Li82  1  -0.35117414  -0.81516682  -0.02967743  1
  Li  Li83  1  -0.46399268  0.35117414  -0.02967743  1
  Li  Li84  1  -0.46399268  -0.81516682  -0.52967743  1
  Li  Li85  1  0.81516682  0.35117414  -0.52967743  1
  Li  Li86  1  -0.35117414  0.46399268  -0.52967743  1
  Li  Li87  1  -0.81516682  -0.46399268  1.02967743  1
  Li  Li88  1  0.35117414  0.81516682  1.02967743  1
  Li  Li89  1  0.46399268  -0.35117414  1.02967743  1
  Li  Li90  1  1.13065935  1.14850015  0.86301076  1
  Li  Li91  1  -0.14850015  -0.01784080  0.86301076  1
  Li  Li92  1  1.01784080  -0.13065935  0.86301076  1
  Li  Li93  1  1.48183348  0.79732601  0.30365591  1
  Li  Li94  1  0.31549253  -0.48183348  0.30365591  1
  Li  Li95  1  0.20267399  0.68450747  0.30365591  1
  Li  Li96  1  0.20267399  -0.48183348  -0.19634409  1
  Li  Li97  1  1.48183348  0.68450747  -0.19634409  1
  Li  Li98  1  0.31549253  0.79732601  -0.19634409  1
  Li  Li99  1  -0.14850015  -0.13065935  1.36301076  1
  Li  Li100  1  1.01784080  1.14850015  1.36301076  1
  Li  Li101  1  1.13065935  -0.01784080  1.36301076  1
  Li  Li102  1  0.79732601  1.48183348  1.19634409  1
  Li  Li103  1  -0.48183348  0.31549253  1.19634409  1
  Li  Li104  1  0.68450747  0.20267399  1.19634409  1
  Li  Li105  1  1.14850015  1.13065935  0.63698924  1
  Li  Li106  1  -0.01784080  -0.14850015  0.63698924  1
  Li  Li107  1  -0.13065935  1.01784080  0.63698924  1
  Li  Li108  1  -0.13065935  -0.14850015  0.13698924  1
  Li  Li109  1  1.14850015  1.01784080  0.13698924  1
  Li  Li110  1  -0.01784080  1.13065935  0.13698924  1
  Li  Li111  1  -0.48183348  0.20267399  1.69634409  1
  Li  Li112  1  0.68450747  1.48183348  1.69634409  1
  Li  Li113  1  0.79732601  0.31549253  1.69634409  1
  Li  Li114  1  0.00000000  0.00000000  0.25000000  1
  Li  Li115  1  0.00000000  0.00000000  0.75000000  1
  Li  Li116  1  0.66666667  0.33333333  0.58333333  1
  Li  Li117  1  0.66666667  0.33333333  0.08333333  1
  Li  Li118  1  0.33333333  0.66666667  0.91666667  1
  Li  Li119  1  0.33333333  0.66666667  0.41666667  1
