# generated using pymatgen
data_LiYTe4P3Se
_symmetry_space_group_name_H-M   'P 1'
_cell_length_a   5.63477830
_cell_length_b   5.56401011
_cell_length_c   7.57335190
_cell_angle_alpha   94.97278253
_cell_angle_beta   100.05433864
_cell_angle_gamma   106.20575154
_symmetry_Int_Tables_number   1
_chemical_formula_structural   LiYTe4P3Se
_chemical_formula_sum   'Li1 Y1 Te4 P3 Se1'
_cell_volume   222.18934188
_cell_formula_units_Z   1
loop_
 _symmetry_equiv_pos_site_id
 _symmetry_equiv_pos_as_xyz
  1  'x, y, z'
loop_
 _atom_site_type_symbol
 _atom_site_label
 _atom_site_symmetry_multiplicity
 _atom_site_fract_x
 _atom_site_fract_y
 _atom_site_fract_z
 _atom_site_occupancy
  Se  Se0  1  0.12500000  0.00000000  0.25000000  1
  Te  Te1  1  0.00000000  0.00000000  0.00000000  1
  Te  Te2  1  0.37500000  0.00000000  0.25000000  1
  Te  Te3  1  0.25000000  0.25000000  0.25000000  1
  Te  Te4  1  0.00000000  0.25000000  0.12500000  1
  P  P5  1  0.67343311  0.12637846  0.69298017  1
  P  P6  1  0.49899129  0.21741900  0.26155296  1
  P  P7  1  0.73621863  0.35846677  0.22755182  1
  Li  Li8  1  0.93470235  0.07105755  0.02523770  1
  Y  Y9  1  0.86600367  0.88719778  0.49663982  1
