# generated using pymatgen
data_Li2YAsP3Se2
_symmetry_space_group_name_H-M   'P 1'
_cell_length_a   5.21404229
_cell_length_b   5.29536998
_cell_length_c   7.24084498
_cell_angle_alpha   94.92148117
_cell_angle_beta   100.37826083
_cell_angle_gamma   108.11679218
_symmetry_Int_Tables_number   1
_chemical_formula_structural   Li2YAsP3Se2
_chemical_formula_sum   'Li2 Y1 As1 P3 Se2'
_cell_volume   184.73929168
_cell_formula_units_Z   1
loop_
 _symmetry_equiv_pos_site_id
 _symmetry_equiv_pos_as_xyz
  1  'x, y, z'
loop_
 _atom_site_type_symbol
 _atom_site_label
 _atom_site_symmetry_multiplicity
 _atom_site_fract_x
 _atom_site_fract_y
 _atom_site_fract_z
 _atom_site_occupancy
  Se  Se0  1  0.12500000  0.00000000  0.25000000  1
  Se  Se1  1  0.00000000  0.00000000  0.00000000  1
  P  P2  1  0.37500000  0.00000000  0.25000000  1
  P  P3  1  0.25000000  0.25000000  0.25000000  1
  P  P4  1  0.00000000  0.25000000  0.12500000  1
  As  As5  1  0.97698039  0.65463624  0.03489808  1
  Li  Li6  1  0.23852518  0.55704534  0.22971043  1
  Li  Li7  1  0.53368371  0.14625306  0.87549067  1
  Y  Y8  1  0.95210436  0.89097802  0.75288104  1
