# generated using pymatgen
data_LiF
_symmetry_space_group_name_H-M   'P 1'
_cell_length_a   6.48701695
_cell_length_b   12.28978792
_cell_length_c   3.97093756
_cell_angle_alpha   90.00000000
_cell_angle_beta   90.00000000
_cell_angle_gamma   90.00000000
_symmetry_Int_Tables_number   1
_chemical_formula_structural   LiF
_chemical_formula_sum   'Li12 F12'
_cell_volume   316.57927481
_cell_formula_units_Z   12
loop_
 _symmetry_equiv_pos_site_id
 _symmetry_equiv_pos_as_xyz
  1  'x, y, z'
loop_
 _atom_site_type_symbol
 _atom_site_label
 _atom_site_symmetry_multiplicity
 _atom_site_fract_x
 _atom_site_fract_y
 _atom_site_fract_z
 _atom_site_occupancy
  F  F0  1  0.12376471  0.37630640  0.71826117  1
  F  F1  1  -0.12376471  -0.37630640  0.71826117  1
  F  F2  1  0.37623529  0.87630640  -0.71826117  1
  F  F3  1  0.62376471  0.12369360  -0.71826117  1
  F  F4  1  -0.12376471  -0.37630640  -0.71826117  1
  F  F5  1  0.12376471  0.37630640  -0.71826117  1
  F  F6  1  0.62376471  0.12369360  0.71826117  1
  F  F7  1  0.37623529  0.87630640  0.71826117  1
  F  F8  1  0.16105447  0.22144822  0.00000000  1
  F  F9  1  0.83894553  0.77855178  0.00000000  1
  F  F10  1  0.33894553  0.72144822  -0.00000000  1
  F  F11  1  0.66105447  0.27855178  -0.00000000  1
  Li  Li12  1  0.89674405  0.47528220  0.50000000  1
  Li  Li13  1  0.10325595  0.52471780  0.50000000  1
  Li  Li14  1  0.60325595  0.97528220  0.50000000  1
  Li  Li15  1  0.39674405  0.02471780  0.50000000  1
  Li  Li16  1  0.79853162  0.22500648  0.00000000  1
  Li  Li17  1  0.20146838  0.77499352  0.00000000  1
  Li  Li18  1  0.70146838  0.72500648  -0.00000000  1
  Li  Li19  1  0.29853162  0.27499352  0.00000000  1
  Li  Li20  1  0.64663512  0.10207353  0.00000000  1
  Li  Li21  1  0.35336488  0.89792647  -0.00000000  1
  Li  Li22  1  0.85336488  0.60207353  -0.00000000  1
  Li  Li23  1  0.14663512  0.39792647  -0.00000000  1
