# generated using pymatgen
data_Li2YAs(P2Pb)2
_symmetry_space_group_name_H-M   'P 1'
_cell_length_a   4.62916135
_cell_length_b   4.75488153
_cell_length_c   7.09945703
_cell_angle_alpha   96.40227149
_cell_angle_beta   103.32052319
_cell_angle_gamma   112.69123721
_symmetry_Int_Tables_number   1
_chemical_formula_structural   Li2YAs(P2Pb)2
_chemical_formula_sum   'Li2 Y1 As1 P4 Pb2'
_cell_volume   136.75334561
_cell_formula_units_Z   1
loop_
 _symmetry_equiv_pos_site_id
 _symmetry_equiv_pos_as_xyz
  1  'x, y, z'
loop_
 _atom_site_type_symbol
 _atom_site_label
 _atom_site_symmetry_multiplicity
 _atom_site_fract_x
 _atom_site_fract_y
 _atom_site_fract_z
 _atom_site_occupancy
  P  P0  1  0.12500000  0.00000000  0.25000000  1
  P  P1  1  0.00000000  0.00000000  0.00000000  1
  P  P2  1  0.37500000  0.00000000  0.25000000  1
  P  P3  1  0.25000000  0.25000000  0.25000000  1
  Pb  Pb4  1  0.00000000  0.25000000  0.12500000  1
  Pb  Pb5  1  0.59561172  0.34951049  0.86484317  1
  As  As6  1  0.53395663  0.64744384  0.36360023  1
  Li  Li7  1  0.83624962  0.18238959  0.51001211  1
  Li  Li8  1  0.58317634  0.89800550  0.31990269  1
  Y  Y9  1  0.42794616  0.36998846  0.40696556  1
