# generated using pymatgen
data_LiF
_symmetry_space_group_name_H-M   'P 1'
_cell_length_a   6.75253919
_cell_length_b   6.75253919
_cell_length_c   28.39676313
_cell_angle_alpha   90.00000000
_cell_angle_beta   90.00000000
_cell_angle_gamma   90.00000000
_symmetry_Int_Tables_number   1
_chemical_formula_structural   LiF
_chemical_formula_sum   'Li32 F32'
_cell_volume   1294.80111725
_cell_formula_units_Z   32
loop_
 _symmetry_equiv_pos_site_id
 _symmetry_equiv_pos_as_xyz
  1  'x, y, z'
loop_
 _atom_site_type_symbol
 _atom_site_label
 _atom_site_symmetry_multiplicity
 _atom_site_fract_x
 _atom_site_fract_y
 _atom_site_fract_z
 _atom_site_occupancy
  F  F0  1  0.04116037  0.36400949  0.57595357  1
  F  F1  1  0.45883963  0.63599051  0.07595357  1
  F  F2  1  0.88599051  0.79116037  0.82595357  1
  F  F3  1  0.61400949  0.20883963  0.32595357  1
  F  F4  1  0.45883963  0.36400949  0.42404643  1
  F  F5  1  0.04116037  0.63599051  0.92404643  1
  F  F6  1  0.61400949  0.79116037  0.17404643  1
  F  F7  1  0.88599051  0.20883963  0.67404643  1
  F  F8  1  0.95883963  0.63599051  0.42404643  1
  F  F9  1  0.54116037  0.36400949  0.92404643  1
  F  F10  1  0.11400949  0.20883963  0.17404643  1
  F  F11  1  0.38599051  0.79116037  0.67404643  1
  F  F12  1  0.54116037  0.63599051  0.57595357  1
  F  F13  1  0.95883963  0.36400949  0.07595357  1
  F  F14  1  0.38599051  0.20883963  0.82595357  1
  F  F15  1  0.11400949  0.79116037  0.32595357  1
  F  F16  1  0.54116037  0.86400949  0.07595357  1
  F  F17  1  0.95883963  0.13599051  0.57595357  1
  F  F18  1  0.38599051  0.29116037  0.32595357  1
  F  F19  1  0.11400949  0.70883963  0.82595357  1
  F  F20  1  0.95883963  0.86400949  0.92404643  1
  F  F21  1  0.54116037  0.13599051  0.42404643  1
  F  F22  1  0.11400949  0.29116037  0.67404643  1
  F  F23  1  0.38599051  0.70883963  0.17404643  1
  F  F24  1  0.45883963  0.13599051  0.92404643  1
  F  F25  1  0.04116037  0.86400949  0.42404643  1
  F  F26  1  0.61400949  0.70883963  0.67404643  1
  F  F27  1  0.88599051  0.29116037  0.17404643  1
  F  F28  1  0.04116037  0.13599051  0.07595357  1
  F  F29  1  0.45883963  0.86400949  0.57595357  1
  F  F30  1  0.88599051  0.70883963  0.32595357  1
  F  F31  1  0.61400949  0.29116037  0.82595357  1
  Li  Li32  1  0.35733421  0.40065004  0.59263684  1
  Li  Li33  1  0.14266579  -0.40065004  1.09263684  1
  Li  Li34  1  -0.15065004  1.10733421  0.84263684  1
  Li  Li35  1  0.65065004  -0.10733421  1.34263684  1
  Li  Li36  1  0.14266579  0.40065004  -0.59263684  1
  Li  Li37  1  0.35733421  -0.40065004  -0.09263684  1
  Li  Li38  1  0.65065004  1.10733421  0.15736316  1
  Li  Li39  1  -0.15065004  -0.10733421  -0.34263684  1
  Li  Li40  1  -0.35733421  -0.40065004  -0.59263684  1
  Li  Li41  1  0.85733421  0.40065004  -0.09263684  1
  Li  Li42  1  1.15065004  -0.10733421  0.15736316  1
  Li  Li43  1  0.34934996  1.10733421  -0.34263684  1
  Li  Li44  1  0.85733421  -0.40065004  0.59263684  1
  Li  Li45  1  -0.35733421  0.40065004  1.09263684  1
  Li  Li46  1  0.34934996  -0.10733421  0.84263684  1
  Li  Li47  1  1.15065004  1.10733421  1.34263684  1
  Li  Li48  1  0.85733421  0.90065004  1.09263684  1
  Li  Li49  1  0.64266579  0.09934996  1.59263684  1
  Li  Li50  1  0.34934996  1.60733421  1.34263684  1
  Li  Li51  1  1.15065004  0.39266579  1.84263684  1
  Li  Li52  1  0.64266579  0.90065004  -0.09263684  1
  Li  Li53  1  0.85733421  0.09934996  0.40736316  1
  Li  Li54  1  1.15065004  1.60733421  0.65736316  1
  Li  Li55  1  0.34934996  0.39266579  0.15736316  1
  Li  Li56  1  0.14266579  0.09934996  -0.09263684  1
  Li  Li57  1  1.35733421  0.90065004  0.40736316  1
  Li  Li58  1  1.65065004  0.39266579  0.65736316  1
  Li  Li59  1  0.84934996  1.60733421  0.15736316  1
  Li  Li60  1  1.35733421  0.09934996  1.09263684  1
  Li  Li61  1  0.14266579  0.90065004  1.59263684  1
  Li  Li62  1  0.84934996  0.39266579  1.34263684  1
  Li  Li63  1  1.65065004  1.60733421  1.84263684  1
