# generated using pymatgen
data_LiF
_symmetry_space_group_name_H-M   'P 1'
_cell_length_a   7.34726127
_cell_length_b   18.79495818
_cell_length_c   13.49107741
_cell_angle_alpha   90.00000000
_cell_angle_beta   90.00000000
_cell_angle_gamma   90.00000000
_symmetry_Int_Tables_number   1
_chemical_formula_structural   LiF
_chemical_formula_sum   'Li88 F88'
_cell_volume   1863.00268869
_cell_formula_units_Z   88
loop_
 _symmetry_equiv_pos_site_id
 _symmetry_equiv_pos_as_xyz
  1  'x, y, z'
loop_
 _atom_site_type_symbol
 _atom_site_label
 _atom_site_symmetry_multiplicity
 _atom_site_fract_x
 _atom_site_fract_y
 _atom_site_fract_z
 _atom_site_occupancy
  F  F0  1  0.00000000  0.00000000  0.64259114  1
  F  F1  1  0.50000000  0.50000000  0.35740886  1
  F  F2  1  0.00000000  0.00000000  0.35740886  1
  F  F3  1  0.50000000  0.50000000  0.64259114  1
  F  F4  1  0.46680374  0.83445959  0.45561012  1
  F  F5  1  0.53319626  0.16554041  0.45561012  1
  F  F6  1  0.03319626  0.33445959  0.54438988  1
  F  F7  1  0.96680374  0.66554041  0.54438988  1
  F  F8  1  0.53319626  0.16554041  0.54438988  1
  F  F9  1  0.46680374  0.83445959  0.54438988  1
  F  F10  1  0.96680374  0.66554041  0.45561012  1
  F  F11  1  0.03319626  0.33445959  0.45561012  1
  F  F12  1  0.93092511  0.23827286  0.40164129  1
  F  F13  1  0.06907489  0.76172714  0.40164129  1
  F  F14  1  0.56907489  0.73827286  0.59835871  1
  F  F15  1  0.43092511  0.26172714  0.59835871  1
  F  F16  1  0.06907489  0.76172714  0.59835871  1
  F  F17  1  0.93092511  0.23827286  0.59835871  1
  F  F18  1  0.43092511  0.26172714  0.40164129  1
  F  F19  1  0.56907489  0.73827286  0.40164129  1
  F  F20  1  0.80435003  0.68812067  0.62315704  1
  F  F21  1  0.19564997  0.31187933  0.62315704  1
  F  F22  1  0.69564997  0.18812067  0.37684296  1
  F  F23  1  0.30435003  0.81187933  0.37684296  1
  F  F24  1  0.19564997  0.31187933  0.37684296  1
  F  F25  1  0.80435003  0.68812067  0.37684296  1
  F  F26  1  0.30435003  0.81187933  0.62315704  1
  F  F27  1  0.69564997  0.18812067  0.62315704  1
  F  F28  1  0.41013564  0.98651872  0.91426879  1
  F  F29  1  0.58986436  0.01348128  0.91426879  1
  F  F30  1  0.08986436  0.48651872  0.08573121  1
  F  F31  1  0.91013564  0.51348128  0.08573121  1
  F  F32  1  0.58986436  0.01348128  0.08573121  1
  F  F33  1  0.41013564  0.98651872  0.08573121  1
  F  F34  1  0.91013564  0.51348128  0.91426879  1
  F  F35  1  0.08986436  0.48651872  0.91426879  1
  F  F36  1  0.82620512  0.71979944  0.40545263  1
  F  F37  1  0.17379488  0.28020056  0.40545263  1
  F  F38  1  0.67379488  0.21979944  0.59454737  1
  F  F39  1  0.32620512  0.78020056  0.59454737  1
  F  F40  1  0.17379488  0.28020056  0.59454737  1
  F  F41  1  0.82620512  0.71979944  0.59454737  1
  F  F42  1  0.32620512  0.78020056  0.40545263  1
  F  F43  1  0.67379488  0.21979944  0.40545263  1
  F  F44  1  0.51893160  0.32726256  0.41795666  1
  F  F45  1  0.48106840  0.67273744  0.41795666  1
  F  F46  1  0.98106840  0.82726256  0.58204334  1
  F  F47  1  0.01893160  0.17273744  0.58204334  1
  F  F48  1  0.48106840  0.67273744  0.58204334  1
  F  F49  1  0.51893160  0.32726256  0.58204334  1
  F  F50  1  0.01893160  0.17273744  0.41795666  1
  F  F51  1  0.98106840  0.82726256  0.41795666  1
  F  F52  1  0.71947354  0.43602437  0.50000000  1
  F  F53  1  0.28052646  0.56397563  0.50000000  1
  F  F54  1  0.78052646  0.93602437  0.50000000  1
  F  F55  1  0.21947354  0.06397563  0.50000000  1
  F  F56  1  0.92681392  0.40871628  0.71065751  1
  F  F57  1  0.07318608  0.59128372  0.71065751  1
  F  F58  1  0.57318608  0.90871628  0.28934249  1
  F  F59  1  0.42681392  0.09128372  0.28934249  1
  F  F60  1  0.07318608  0.59128372  0.28934249  1
  F  F61  1  0.92681392  0.40871628  0.28934249  1
  F  F62  1  0.42681392  0.09128372  0.71065751  1
  F  F63  1  0.57318608  0.90871628  0.71065751  1
  F  F64  1  0.05651437  0.39975313  0.24114958  1
  F  F65  1  0.94348563  0.60024687  0.24114958  1
  F  F66  1  0.44348563  0.89975313  0.75885042  1
  F  F67  1  0.55651437  0.10024687  0.75885042  1
  F  F68  1  0.94348563  0.60024687  0.75885042  1
  F  F69  1  0.05651437  0.39975313  0.75885042  1
  F  F70  1  0.55651437  0.10024687  0.24114958  1
  F  F71  1  0.44348563  0.89975313  0.24114958  1
  F  F72  1  0.24249581  0.94916554  0.50000000  1
  F  F73  1  0.75750419  0.05083446  0.50000000  1
  F  F74  1  0.25750419  0.44916554  0.50000000  1
  F  F75  1  0.74249581  0.55083446  0.50000000  1
  F  F76  1  0.00000000  0.50000000  0.86426407  1
  F  F77  1  0.50000000  0.00000000  0.13573593  1
  F  F78  1  0.00000000  0.50000000  0.13573593  1
  F  F79  1  0.50000000  0.00000000  0.86426407  1
  F  F80  1  0.68932038  0.08172638  0.38513823  1
  F  F81  1  0.31067962  0.91827362  0.38513823  1
  F  F82  1  0.81067962  0.58172638  0.61486177  1
  F  F83  1  0.18932038  0.41827362  0.61486177  1
  F  F84  1  0.31067962  0.91827362  0.61486177  1
  F  F85  1  0.68932038  0.08172638  0.61486177  1
  F  F86  1  0.18932038  0.41827362  0.38513823  1
  F  F87  1  0.81067962  0.58172638  0.38513823  1
  Li  Li88  1  0.00000000  0.50000000  0.00000000  1
  Li  Li89  1  0.50000000  0.00000000  0.00000000  1
  Li  Li90  1  0.73408160  0.59605897  0.92404581  1
  Li  Li91  1  -0.73408160  -0.59605897  0.92404581  1
  Li  Li92  1  -0.23408160  1.09605897  -0.92404581  1
  Li  Li93  1  1.23408160  -0.09605897  -0.92404581  1
  Li  Li94  1  -0.73408160  -0.59605897  -0.92404581  1
  Li  Li95  1  0.73408160  0.59605897  -0.92404581  1
  Li  Li96  1  1.23408160  -0.09605897  0.92404581  1
  Li  Li97  1  -0.23408160  1.09605897  0.92404581  1
  Li  Li98  1  0.90799813  0.91772258  0.67917480  1
  Li  Li99  1  0.09200187  0.08227742  0.67917480  1
  Li  Li100  1  0.59200187  0.41772258  0.32082520  1
  Li  Li101  1  0.40799813  0.58227742  0.32082520  1
  Li  Li102  1  0.09200187  0.08227742  0.32082520  1
  Li  Li103  1  0.90799813  0.91772258  0.32082520  1
  Li  Li104  1  0.40799813  0.58227742  0.67917480  1
  Li  Li105  1  0.59200187  0.41772258  0.67917480  1
  Li  Li106  1  0.56413097  0.96266538  0.50000000  1
  Li  Li107  1  0.43586903  0.03733462  0.50000000  1
  Li  Li108  1  0.93586903  0.46266538  0.50000000  1
  Li  Li109  1  0.06413097  0.53733462  0.50000000  1
  Li  Li110  1  0.34568185  0.65262128  0.00000000  1
  Li  Li111  1  0.65431815  0.34737872  0.00000000  1
  Li  Li112  1  0.15431815  0.15262128  0.00000000  1
  Li  Li113  1  0.84568185  0.84737872  0.00000000  1
  Li  Li114  1  0.30802410  0.80809449  0.90929753  1
  Li  Li115  1  0.69197590  0.19190551  0.90929753  1
  Li  Li116  1  0.19197590  0.30809449  0.09070247  1
  Li  Li117  1  0.80802410  0.69190551  0.09070247  1
  Li  Li118  1  0.69197590  0.19190551  0.09070247  1
  Li  Li119  1  0.30802410  0.80809449  0.09070247  1
  Li  Li120  1  0.80802410  0.69190551  0.90929753  1
  Li  Li121  1  0.19197590  0.30809449  0.90929753  1
  Li  Li122  1  0.76021686  0.59845648  0.31102901  1
  Li  Li123  1  0.23978314  0.40154352  0.31102901  1
  Li  Li124  1  0.73978314  0.09845648  0.68897099  1
  Li  Li125  1  0.26021686  0.90154352  0.68897099  1
  Li  Li126  1  0.23978314  0.40154352  0.68897099  1
  Li  Li127  1  0.76021686  0.59845648  0.68897099  1
  Li  Li128  1  0.26021686  0.90154352  0.31102901  1
  Li  Li129  1  0.73978314  0.09845648  0.31102901  1
  Li  Li130  1  0.05461438  0.54674795  0.14374759  1
  Li  Li131  1  0.94538562  0.45325205  0.14374759  1
  Li  Li132  1  0.44538562  0.04674795  0.85625241  1
  Li  Li133  1  0.55461438  0.95325205  0.85625241  1
  Li  Li134  1  0.94538562  0.45325205  0.85625241  1
  Li  Li135  1  0.05461438  0.54674795  0.85625241  1
  Li  Li136  1  0.55461438  0.95325205  0.14374759  1
  Li  Li137  1  0.44538562  0.04674795  0.14374759  1
  Li  Li138  1  0.22942515  0.53388269  0.24541099  1
  Li  Li139  1  0.77057485  0.46611731  0.24541099  1
  Li  Li140  1  0.27057485  0.03388269  0.75458901  1
  Li  Li141  1  0.72942515  0.96611731  0.75458901  1
  Li  Li142  1  0.77057485  0.46611731  0.75458901  1
  Li  Li143  1  0.22942515  0.53388269  0.75458901  1
  Li  Li144  1  0.72942515  0.96611731  0.24541099  1
  Li  Li145  1  0.27057485  0.03388269  0.24541099  1
  Li  Li146  1  0.43149717  0.41796313  0.50000000  1
  Li  Li147  1  0.56850283  0.58203687  0.50000000  1
  Li  Li148  1  0.06850283  0.91796313  0.50000000  1
  Li  Li149  1  0.93149717  0.08203687  0.50000000  1
  Li  Li150  1  0.44582025  0.95562855  0.34233012  1
  Li  Li151  1  0.55417975  0.04437145  0.34233012  1
  Li  Li152  1  0.05417975  0.45562855  0.65766988  1
  Li  Li153  1  0.94582025  0.54437145  0.65766988  1
  Li  Li154  1  0.55417975  0.04437145  0.65766988  1
  Li  Li155  1  0.44582025  0.95562855  0.65766988  1
  Li  Li156  1  0.94582025  0.54437145  0.34233012  1
  Li  Li157  1  0.05417975  0.45562855  0.34233012  1
  Li  Li158  1  0.00000000  0.50000000  0.27379161  1
  Li  Li159  1  0.50000000  0.00000000  0.72620839  1
  Li  Li160  1  0.00000000  0.50000000  0.72620839  1
  Li  Li161  1  0.50000000  0.00000000  0.27379161  1
  Li  Li162  1  0.98852073  0.62838094  0.15328660  1
  Li  Li163  1  0.01147927  0.37161906  0.15328660  1
  Li  Li164  1  0.51147927  0.12838094  0.84671340  1
  Li  Li165  1  0.48852073  0.87161906  0.84671340  1
  Li  Li166  1  0.01147927  0.37161906  0.84671340  1
  Li  Li167  1  0.98852073  0.62838094  0.84671340  1
  Li  Li168  1  0.48852073  0.87161906  0.15328660  1
  Li  Li169  1  0.51147927  0.12838094  0.15328660  1
  Li  Li170  1  0.06788794  0.77660049  0.00000000  1
  Li  Li171  1  0.93211206  0.22339951  0.00000000  1
  Li  Li172  1  0.43211206  0.27660049  0.00000000  1
  Li  Li173  1  0.56788794  0.72339951  0.00000000  1
  Li  Li174  1  0.00000000  0.00000000  0.50000000  1
  Li  Li175  1  0.50000000  0.50000000  0.50000000  1
