# generated using pymatgen
data_LiF
_symmetry_space_group_name_H-M   'P 1'
_cell_length_a   16.24043492
_cell_length_b   16.24043492
_cell_length_c   7.88805172
_cell_angle_alpha   90.00000000
_cell_angle_beta   90.00000000
_cell_angle_gamma   120.00000000
_symmetry_Int_Tables_number   1
_chemical_formula_structural   LiF
_chemical_formula_sum   'Li55 F55'
_cell_volume   1801.75481767
_cell_formula_units_Z   55
loop_
 _symmetry_equiv_pos_site_id
 _symmetry_equiv_pos_as_xyz
  1  'x, y, z'
loop_
 _atom_site_type_symbol
 _atom_site_label
 _atom_site_symmetry_multiplicity
 _atom_site_fract_x
 _atom_site_fract_y
 _atom_site_fract_z
 _atom_site_occupancy
  F  F0  1  0.25303156  0.76298266  0.90001281  1
  F  F1  1  0.23701734  0.49004890  0.90001281  1
  F  F2  1  0.50995110  0.74696844  0.90001281  1
  F  F3  1  0.23701734  0.74696844  0.09998719  1
  F  F4  1  0.50995110  0.76298266  0.09998719  1
  F  F5  1  0.25303156  0.49004890  0.09998719  1
  F  F6  1  0.20050518  0.01869366  0.50022663  1
  F  F7  1  0.98130634  0.18181152  0.50022663  1
  F  F8  1  0.81818848  0.79949482  0.50022663  1
  F  F9  1  0.98130634  0.79949482  0.49977337  1
  F  F10  1  0.81818848  0.01869366  0.49977337  1
  F  F11  1  0.20050518  0.18181152  0.49977337  1
  F  F12  1  0.97772406  0.55605253  0.23166244  1
  F  F13  1  0.44394747  0.42167153  0.23166244  1
  F  F14  1  0.57832847  0.02227594  0.23166244  1
  F  F15  1  0.44394747  0.02227594  0.76833756  1
  F  F16  1  0.57832847  0.55605253  0.76833756  1
  F  F17  1  0.97772406  0.42167153  0.76833756  1
  F  F18  1  0.00081138  0.96266118  0.32923281  1
  F  F19  1  0.03733882  0.03815020  0.32923281  1
  F  F20  1  0.96184980  0.99918862  0.32923281  1
  F  F21  1  0.03733882  0.99918862  0.67076719  1
  F  F22  1  0.96184980  0.96266118  0.67076719  1
  F  F23  1  0.00081138  0.03815020  0.67076719  1
  F  F24  1  0.24776390  0.75223610  0.50000000  1
  F  F25  1  0.24776390  0.49552780  0.50000000  1
  F  F26  1  0.50447220  0.75223610  0.50000000  1
  F  F27  1  0.42388475  0.19734402  0.25807234  1
  F  F28  1  0.80265598  0.22654072  0.25807234  1
  F  F29  1  0.77345928  0.57611525  0.25807234  1
  F  F30  1  0.80265598  0.57611525  0.74192766  1
  F  F31  1  0.77345928  0.19734402  0.74192766  1
  F  F32  1  0.42388475  0.22654072  0.74192766  1
  F  F33  1  0.27085895  0.55038660  0.86494365  1
  F  F34  1  0.44961340  0.72047235  0.86494365  1
  F  F35  1  0.27952765  0.72914105  0.86494365  1
  F  F36  1  0.44961340  0.72914105  0.13505635  1
  F  F37  1  0.27952765  0.55038660  0.13505635  1
  F  F38  1  0.27085895  0.72047235  0.13505635  1
  F  F39  1  0.75362792  0.21459273  0.35727811  1
  F  F40  1  0.78540727  0.53903520  0.35727811  1
  F  F41  1  0.46096480  0.24637208  0.35727811  1
  F  F42  1  0.78540727  0.24637208  0.64272189  1
  F  F43  1  0.46096480  0.21459273  0.64272189  1
  F  F44  1  0.75362792  0.53903520  0.64272189  1
  F  F45  1  0.51155602  0.14655768  0.80451172  1
  F  F46  1  0.85344232  0.36499834  0.80451172  1
  F  F47  1  0.63500166  0.48844398  0.80451172  1
  F  F48  1  0.85344232  0.48844398  0.19548828  1
  F  F49  1  0.63500166  0.14655768  0.19548828  1
  F  F50  1  0.51155602  0.36499834  0.19548828  1
  F  F51  1  0.30542838  0.69457162  0.00000000  1
  F  F52  1  0.30542838  0.61085677  0.00000000  1
  F  F53  1  0.38914323  0.69457162  0.00000000  1
  F  F54  1  0.33333333  0.66666667  0.00000000  1
  Li  Li55  1  0.80112349  0.19887651  0.50000000  1
  Li  Li56  1  0.80112349  0.60224698  0.50000000  1
  Li  Li57  1  0.39775302  0.19887651  0.50000000  1
  Li  Li58  1  0.57784650  0.49038300  0.62202347  1
  Li  Li59  1  -0.49038300  0.08746351  0.62202347  1
  Li  Li60  1  -0.08746351  -0.57784650  0.62202347  1
  Li  Li61  1  -0.49038300  -0.57784650  -0.62202347  1
  Li  Li62  1  -0.08746351  0.49038300  -0.62202347  1
  Li  Li63  1  0.57784650  0.08746351  -0.62202347  1
  Li  Li64  1  0.90691900  0.40865339  0.04889016  1
  Li  Li65  1  0.59134661  0.49826561  0.04889016  1
  Li  Li66  1  0.50173439  0.09308100  0.04889016  1
  Li  Li67  1  0.59134661  0.09308100  0.95110984  1
  Li  Li68  1  0.50173439  0.40865339  0.95110984  1
  Li  Li69  1  0.90691900  0.49826561  0.95110984  1
  Li  Li70  1  0.00000000  0.00000000  0.00000000  1
  Li  Li71  1  0.83475939  0.80005317  0.34772955  1
  Li  Li72  1  0.19994683  0.03470622  0.34772955  1
  Li  Li73  1  0.96529378  0.16524061  0.34772955  1
  Li  Li74  1  0.19994683  0.16524061  0.65227045  1
  Li  Li75  1  0.96529378  0.80005317  0.65227045  1
  Li  Li76  1  0.83475939  0.03470622  0.65227045  1
  Li  Li77  1  0.53860711  0.73757355  0.71018226  1
  Li  Li78  1  0.26242645  0.80103357  0.71018226  1
  Li  Li79  1  0.19896643  0.46139289  0.71018226  1
  Li  Li80  1  0.26242645  0.46139289  0.28981774  1
  Li  Li81  1  0.19896643  0.73757355  0.28981774  1
  Li  Li82  1  0.53860711  0.80103357  0.28981774  1
  Li  Li83  1  0.64997233  0.00236509  0.18629010  1
  Li  Li84  1  0.99763491  0.64760724  0.18629010  1
  Li  Li85  1  0.35239276  0.35002767  0.18629010  1
  Li  Li86  1  0.99763491  0.35002767  0.81370990  1
  Li  Li87  1  0.35239276  0.00236509  0.81370990  1
  Li  Li88  1  0.64997233  0.64760724  0.81370990  1
  Li  Li89  1  0.20955082  0.63244413  0.93325198  1
  Li  Li90  1  0.36755587  0.57710669  0.93325198  1
  Li  Li91  1  0.42289331  0.79044918  0.93325198  1
  Li  Li92  1  0.36755587  0.79044918  0.06674802  1
  Li  Li93  1  0.42289331  0.63244413  0.06674802  1
  Li  Li94  1  0.20955082  0.57710669  0.06674802  1
  Li  Li95  1  0.73113261  0.74556581  0.39003787  1
  Li  Li96  1  0.25443419  0.98556679  0.39003787  1
  Li  Li97  1  0.01443321  0.26886739  0.39003787  1
  Li  Li98  1  0.25443419  0.26886739  0.60996213  1
  Li  Li99  1  0.01443321  0.74556581  0.60996213  1
  Li  Li100  1  0.73113261  0.98556679  0.60996213  1
  Li  Li101  1  0.33333333  0.66666667  0.50000000  1
  Li  Li102  1  0.74769313  0.28252705  0.21213081  1
  Li  Li103  1  0.71747295  0.46516609  0.21213081  1
  Li  Li104  1  0.53483391  0.25230687  0.21213081  1
  Li  Li105  1  0.71747295  0.25230687  0.78786919  1
  Li  Li106  1  0.53483391  0.28252705  0.78786919  1
  Li  Li107  1  0.74769313  0.46516609  0.78786919  1
  Li  Li108  1  0.66666667  0.33333333  0.18685016  1
  Li  Li109  1  0.66666667  0.33333333  0.81314984  1
