# generated using pymatgen
data_LiF
_symmetry_space_group_name_H-M   'P 1'
_cell_length_a   5.26060076
_cell_length_b   15.20724420
_cell_length_c   7.17969619
_cell_angle_alpha   90.00000000
_cell_angle_beta   90.00000000
_cell_angle_gamma   90.00000000
_symmetry_Int_Tables_number   1
_chemical_formula_structural   LiF
_chemical_formula_sum   'Li22 F22'
_cell_volume   574.37024158
_cell_formula_units_Z   22
loop_
 _symmetry_equiv_pos_site_id
 _symmetry_equiv_pos_as_xyz
  1  'x, y, z'
loop_
 _atom_site_type_symbol
 _atom_site_label
 _atom_site_symmetry_multiplicity
 _atom_site_fract_x
 _atom_site_fract_y
 _atom_site_fract_z
 _atom_site_occupancy
  F  F0  1  0.87697371  0.34811662  0.50000000  1
  F  F1  1  0.12302629  0.65188338  0.50000000  1
  F  F2  1  0.62302629  0.84811662  0.50000000  1
  F  F3  1  0.37697371  0.15188338  0.50000000  1
  F  F4  1  0.00000000  0.00000000  0.00000000  1
  F  F5  1  0.50000000  0.50000000  0.00000000  1
  F  F6  1  0.17259706  0.67917503  0.38498216  1
  F  F7  1  -0.17259706  -0.67917503  0.38498216  1
  F  F8  1  0.32740294  1.17917503  -0.38498216  1
  F  F9  1  0.67259706  -0.17917503  -0.38498216  1
  F  F10  1  -0.17259706  -0.67917503  -0.38498216  1
  F  F11  1  0.17259706  0.67917503  -0.38498216  1
  F  F12  1  0.67259706  -0.17917503  0.38498216  1
  F  F13  1  0.32740294  1.17917503  0.38498216  1
  F  F14  1  0.46990417  0.17127514  0.81714387  1
  F  F15  1  0.53009583  0.82872486  0.81714387  1
  F  F16  1  0.03009583  0.67127514  0.18285613  1
  F  F17  1  0.96990417  0.32872486  0.18285613  1
  F  F18  1  0.53009583  0.82872486  0.18285613  1
  F  F19  1  0.46990417  0.17127514  0.18285613  1
  F  F20  1  0.96990417  0.32872486  0.81714387  1
  F  F21  1  0.03009583  0.67127514  0.81714387  1
  Li  Li22  1  0.00000000  0.00000000  0.50000000  1
  Li  Li23  1  0.50000000  0.50000000  0.50000000  1
  Li  Li24  1  0.00000000  0.50000000  0.00000000  1
  Li  Li25  1  0.50000000  0.00000000  -0.00000000  1
  Li  Li26  1  0.13155314  0.49316467  0.15778600  1
  Li  Li27  1  0.86844686  0.50683533  0.15778600  1
  Li  Li28  1  0.36844686  0.99316467  0.84221400  1
  Li  Li29  1  0.63155314  0.00683533  0.84221400  1
  Li  Li30  1  0.86844686  0.50683533  0.84221400  1
  Li  Li31  1  0.13155314  0.49316467  0.84221400  1
  Li  Li32  1  0.63155314  0.00683533  0.15778600  1
  Li  Li33  1  0.36844686  0.99316467  0.15778600  1
  Li  Li34  1  0.27349518  0.16100690  0.74130168  1
  Li  Li35  1  0.72650482  0.83899310  0.74130168  1
  Li  Li36  1  0.22650482  0.66100690  0.25869832  1
  Li  Li37  1  0.77349518  0.33899310  0.25869832  1
  Li  Li38  1  0.72650482  0.83899310  0.25869832  1
  Li  Li39  1  0.27349518  0.16100690  0.25869832  1
  Li  Li40  1  0.77349518  0.33899310  0.74130168  1
  Li  Li41  1  0.22650482  0.66100690  0.74130168  1
  Li  Li42  1  0.00000000  0.50000000  0.50000000  1
  Li  Li43  1  0.50000000  0.00000000  0.50000000  1
