# generated using pymatgen
data_LiF
_symmetry_space_group_name_H-M   'P 1'
_cell_length_a   10.30972911
_cell_length_b   6.89751801
_cell_length_c   8.68852002
_cell_angle_alpha   90.00000000
_cell_angle_beta   90.00000000
_cell_angle_gamma   90.00000000
_symmetry_Int_Tables_number   1
_chemical_formula_structural   LiF
_chemical_formula_sum   'Li18 F18'
_cell_volume   617.85405815
_cell_formula_units_Z   18
loop_
 _symmetry_equiv_pos_site_id
 _symmetry_equiv_pos_as_xyz
  1  'x, y, z'
loop_
 _atom_site_type_symbol
 _atom_site_label
 _atom_site_symmetry_multiplicity
 _atom_site_fract_x
 _atom_site_fract_y
 _atom_site_fract_z
 _atom_site_occupancy
  F  F0  1  0.39550565  0.65349088  0.00000000  1
  F  F1  1  0.60449435  0.34650912  0.00000000  1
  F  F2  1  0.10449435  0.15349088  0.00000000  1
  F  F3  1  0.89550565  0.84650912  0.00000000  1
  F  F4  1  0.00000000  0.00000000  0.38942314  1
  F  F5  1  0.50000000  0.50000000  0.61057686  1
  F  F6  1  0.00000000  0.00000000  0.61057686  1
  F  F7  1  0.50000000  0.50000000  0.38942314  1
  F  F8  1  0.53888896  0.95923236  0.50000000  1
  F  F9  1  0.46111104  0.04076764  0.50000000  1
  F  F10  1  0.96111104  0.45923236  0.50000000  1
  F  F11  1  0.03888896  0.54076764  0.50000000  1
  F  F12  1  0.00000000  0.00000000  0.77631518  1
  F  F13  1  0.50000000  0.50000000  0.22368482  1
  F  F14  1  0.00000000  0.00000000  0.22368482  1
  F  F15  1  0.50000000  0.50000000  0.77631518  1
  F  F16  1  0.00000000  0.00000000  0.50000000  1
  F  F17  1  0.50000000  0.50000000  0.50000000  1
  Li  Li18  1  0.75167541  0.97411983  0.50000000  1
  Li  Li19  1  0.24832459  0.02588017  0.50000000  1
  Li  Li20  1  0.74832459  0.47411983  0.50000000  1
  Li  Li21  1  0.25167541  0.52588017  0.50000000  1
  Li  Li22  1  0.56358882  0.23431714  0.19997204  1
  Li  Li23  1  -0.56358882  -0.23431714  0.19997204  1
  Li  Li24  1  -0.06358882  0.73431714  -0.19997204  1
  Li  Li25  1  1.06358882  0.26568286  -0.19997204  1
  Li  Li26  1  -0.56358882  -0.23431714  -0.19997204  1
  Li  Li27  1  0.56358882  0.23431714  -0.19997204  1
  Li  Li28  1  1.06358882  0.26568286  0.19997204  1
  Li  Li29  1  -0.06358882  0.73431714  0.19997204  1
  Li  Li30  1  0.03898604  0.33213980  0.00000000  1
  Li  Li31  1  0.96101396  0.66786020  0.00000000  1
  Li  Li32  1  0.46101396  0.83213980  0.00000000  1
  Li  Li33  1  0.53898604  0.16786020  0.00000000  1
  Li  Li34  1  0.00000000  0.00000000  0.00000000  1
  Li  Li35  1  0.50000000  0.50000000  0.00000000  1
