# generated using pymatgen
data_LiCaF3
_symmetry_space_group_name_H-M   'P 1'
_cell_length_a   14.60178097
_cell_length_b   14.60178097
_cell_length_c   9.31249497
_cell_angle_alpha   90.00000000
_cell_angle_beta   90.00000000
_cell_angle_gamma   120.00000000
_symmetry_Int_Tables_number   1
_chemical_formula_structural   LiCaF3
_chemical_formula_sum   'Li18 Ca18 F54'
_cell_volume   1719.52439738
_cell_formula_units_Z   18
loop_
 _symmetry_equiv_pos_site_id
 _symmetry_equiv_pos_as_xyz
  1  'x, y, z'
loop_
 _atom_site_type_symbol
 _atom_site_label
 _atom_site_symmetry_multiplicity
 _atom_site_fract_x
 _atom_site_fract_y
 _atom_site_fract_z
 _atom_site_occupancy
  Ca  Ca0  1  0.35088406  -0.00000000  0.25000000  1
  Ca  Ca1  1  0.00000000  0.35088406  0.25000000  1
  Ca  Ca2  1  0.64911594  0.64911594  0.25000000  1
  Ca  Ca3  1  0.64911594  -0.00000000  0.75000000  1
  Ca  Ca4  1  0.00000000  0.64911594  0.75000000  1
  Ca  Ca5  1  0.35088406  0.35088406  0.75000000  1
  Ca  Ca6  1  0.01755072  0.33333333  0.58333333  1
  Ca  Ca7  1  0.66666667  0.68421739  0.58333333  1
  Ca  Ca8  1  0.31578261  0.98244928  0.58333333  1
  Ca  Ca9  1  0.31578261  0.33333333  0.08333333  1
  Ca  Ca10  1  0.66666667  0.98244928  0.08333333  1
  Ca  Ca11  1  0.01755072  0.68421739  0.08333333  1
  Ca  Ca12  1  0.68421739  0.66666667  0.91666667  1
  Ca  Ca13  1  0.33333333  0.01755072  0.91666667  1
  Ca  Ca14  1  0.98244928  0.31578261  0.91666667  1
  Ca  Ca15  1  0.98244928  0.66666667  0.41666667  1
  Ca  Ca16  1  0.33333333  0.31578261  0.41666667  1
  Ca  Ca17  1  0.68421739  0.01755072  0.41666667  1
  F  F18  1  0.00000000  0.00000000  0.81128287  1
  F  F19  1  0.00000000  0.00000000  0.68871713  1
  F  F20  1  0.00000000  0.00000000  0.18871713  1
  F  F21  1  0.00000000  0.00000000  0.31128287  1
  F  F22  1  0.66666667  0.33333333  0.14461620  1
  F  F23  1  0.66666667  0.33333333  0.02205047  1
  F  F24  1  0.66666667  0.33333333  0.52205047  1
  F  F25  1  0.66666667  0.33333333  0.64461620  1
  F  F26  1  0.33333333  0.66666667  0.47794953  1
  F  F27  1  0.33333333  0.66666667  0.35538380  1
  F  F28  1  0.33333333  0.66666667  0.85538380  1
  F  F29  1  0.33333333  0.66666667  0.97794953  1
  F  F30  1  0.38665847  0.66436852  0.16599232  1
  F  F31  1  -0.66436852  -0.27771005  0.16599232  1
  F  F32  1  0.27771005  -0.38665847  0.16599232  1
  F  F33  1  0.66436852  0.38665847  0.33400768  1
  F  F34  1  -0.27771005  -0.66436852  0.33400768  1
  F  F35  1  -0.38665847  0.27771005  0.33400768  1
  F  F36  1  -0.38665847  -0.66436852  -0.16599232  1
  F  F37  1  0.66436852  0.27771005  -0.16599232  1
  F  F38  1  -0.27771005  0.38665847  -0.16599232  1
  F  F39  1  -0.66436852  -0.38665847  0.66599232  1
  F  F40  1  0.27771005  0.66436852  0.66599232  1
  F  F41  1  0.38665847  -0.27771005  0.66599232  1
  F  F42  1  1.05332514  0.99770186  0.49932565  1
  F  F43  1  0.00229814  0.05562328  0.49932565  1
  F  F44  1  0.94437672  -0.05332514  0.49932565  1
  F  F45  1  1.33103519  0.71999180  0.66734102  1
  F  F46  1  0.38895661  -0.33103519  0.66734102  1
  F  F47  1  0.28000820  0.61104339  0.66734102  1
  F  F48  1  0.28000820  -0.33103519  0.16734102  1
  F  F49  1  1.33103519  0.61104339  0.16734102  1
  F  F50  1  0.38895661  0.71999180  0.16734102  1
  F  F51  1  0.00229814  -0.05332514  0.99932565  1
  F  F52  1  0.94437672  0.99770186  0.99932565  1
  F  F53  1  1.05332514  0.05562328  0.99932565  1
  F  F54  1  0.71999180  1.33103519  0.83265898  1
  F  F55  1  -0.33103519  0.38895661  0.83265898  1
  F  F56  1  0.61104339  0.28000820  0.83265898  1
  F  F57  1  0.99770186  1.05332514  1.00067435  1
  F  F58  1  0.05562328  0.00229814  1.00067435  1
  F  F59  1  -0.05332514  0.94437672  1.00067435  1
  F  F60  1  -0.05332514  0.00229814  0.50067435  1
  F  F61  1  0.99770186  0.94437672  0.50067435  1
  F  F62  1  0.05562328  1.05332514  0.50067435  1
  F  F63  1  -0.33103519  0.28000820  1.33265898  1
  F  F64  1  0.61104339  1.33103519  1.33265898  1
  F  F65  1  0.71999180  0.38895661  1.33265898  1
  F  F66  1  0.00000000  0.00000000  0.00000000  1
  F  F67  1  0.00000000  0.00000000  0.50000000  1
  F  F68  1  0.66666667  0.33333333  0.33333333  1
  F  F69  1  0.66666667  0.33333333  0.83333333  1
  F  F70  1  0.33333333  0.66666667  0.66666667  1
  F  F71  1  0.33333333  0.66666667  0.16666667  1
  Li  Li72  1  0.13108827  0.00000000  0.25000000  1
  Li  Li73  1  0.00000000  0.13108827  0.25000000  1
  Li  Li74  1  0.86891173  0.86891173  0.25000000  1
  Li  Li75  1  0.86891173  -0.00000000  0.75000000  1
  Li  Li76  1  0.00000000  0.86891173  0.75000000  1
  Li  Li77  1  0.13108827  0.13108827  0.75000000  1
  Li  Li78  1  0.79775493  0.33333333  0.58333333  1
  Li  Li79  1  0.66666667  0.46442160  0.58333333  1
  Li  Li80  1  0.53557840  0.20224507  0.58333333  1
  Li  Li81  1  0.53557840  0.33333333  0.08333333  1
  Li  Li82  1  0.66666667  0.20224507  0.08333333  1
  Li  Li83  1  0.79775493  0.46442160  0.08333333  1
  Li  Li84  1  0.46442160  0.66666667  0.91666667  1
  Li  Li85  1  0.33333333  0.79775493  0.91666667  1
  Li  Li86  1  0.20224507  0.53557840  0.91666667  1
  Li  Li87  1  0.20224507  0.66666667  0.41666667  1
  Li  Li88  1  0.33333333  0.53557840  0.41666667  1
  Li  Li89  1  0.46442160  0.79775493  0.41666667  1
