# generated using pymatgen
data_LiF
_symmetry_space_group_name_H-M   'P 1'
_cell_length_a   8.26014058
_cell_length_b   8.26014058
_cell_length_c   5.05746810
_cell_angle_alpha   90.00000000
_cell_angle_beta   90.00000000
_cell_angle_gamma   120.00000000
_symmetry_Int_Tables_number   1
_chemical_formula_structural   LiF
_chemical_formula_sum   'Li23 F23'
_cell_volume   298.83995399
_cell_formula_units_Z   23
loop_
 _symmetry_equiv_pos_site_id
 _symmetry_equiv_pos_as_xyz
  1  'x, y, z'
loop_
 _atom_site_type_symbol
 _atom_site_label
 _atom_site_symmetry_multiplicity
 _atom_site_fract_x
 _atom_site_fract_y
 _atom_site_fract_z
 _atom_site_occupancy
  F  F0  1  0.92215390  0.60736433  0.37275084  1
  F  F1  1  0.39263567  0.31478958  0.37275084  1
  F  F2  1  0.68521042  0.07784610  0.37275084  1
  F  F3  1  0.39263567  0.07784610  0.62724916  1
  F  F4  1  0.68521042  0.60736433  0.62724916  1
  F  F5  1  0.92215390  0.31478958  0.62724916  1
  F  F6  1  0.33333333  0.66666667  0.50000000  1
  F  F7  1  0.68724499  0.70023400  0.80940360  1
  F  F8  1  0.29976600  0.98701100  0.80940360  1
  F  F9  1  0.01298900  0.31275501  0.80940360  1
  F  F10  1  0.29976600  0.31275501  0.19059640  1
  F  F11  1  0.01298900  0.70023400  0.19059640  1
  F  F12  1  0.68724499  0.98701100  0.19059640  1
  F  F13  1  0.00587334  0.29091517  0.11643478  1
  F  F14  1  0.70908483  0.71495817  0.11643478  1
  F  F15  1  0.28504183  0.99412666  0.11643478  1
  F  F16  1  0.70908483  0.99412666  0.88356522  1
  F  F17  1  0.28504183  0.29091517  0.88356522  1
  F  F18  1  0.00587334  0.71495817  0.88356522  1
  F  F19  1  0.96618258  0.03381742  0.50000000  1
  F  F20  1  0.96618258  0.93236516  0.50000000  1
  F  F21  1  0.06763484  0.03381742  0.50000000  1
  F  F22  1  0.00000000  0.00000000  0.00000000  1
  Li  Li23  1  0.42896443  0.04857487  0.21670378  1
  Li  Li24  1  -0.04857487  0.38038956  0.21670378  1
  Li  Li25  1  -0.38038956  -0.42896443  0.21670378  1
  Li  Li26  1  -0.04857487  -0.42896443  -0.21670378  1
  Li  Li27  1  -0.38038956  0.04857487  -0.21670378  1
  Li  Li28  1  0.42896443  0.38038956  -0.21670378  1
  Li  Li29  1  0.33333333  0.66666667  0.28054953  1
  Li  Li30  1  0.33333333  0.66666667  0.71945047  1
  Li  Li31  1  0.34999711  0.17032476  0.71675815  1
  Li  Li32  1  0.82967524  0.17967235  0.71675815  1
  Li  Li33  1  0.82032765  0.65000289  0.71675815  1
  Li  Li34  1  0.82967524  0.65000289  0.28324185  1
  Li  Li35  1  0.82032765  0.17032476  0.28324185  1
  Li  Li36  1  0.34999711  0.17967235  0.28324185  1
  Li  Li37  1  0.02482882  0.61048963  0.52027456  1
  Li  Li38  1  0.38951037  0.41433919  0.52027456  1
  Li  Li39  1  0.58566081  0.97517118  0.52027456  1
  Li  Li40  1  0.38951037  0.97517118  0.47972544  1
  Li  Li41  1  0.58566081  0.61048963  0.47972544  1
  Li  Li42  1  0.02482882  0.41433919  0.47972544  1
  Li  Li43  1  0.33333333  0.66666667  -0.00000000  1
  Li  Li44  1  0.66666667  0.33333333  -0.00000000  1
  Li  Li45  1  0.66666667  0.33333333  0.50000000  1
