# generated using pymatgen
data_Li3Y2As4P3Se
_symmetry_space_group_name_H-M   'P 1'
_cell_length_a   6.09095816
_cell_length_b   6.26833750
_cell_length_c   7.02459083
_cell_angle_alpha   91.42771799
_cell_angle_beta   93.84350342
_cell_angle_gamma   96.62111702
_symmetry_Int_Tables_number   1
_chemical_formula_structural   Li3Y2As4P3Se
_chemical_formula_sum   'Li3 Y2 As4 P3 Se1'
_cell_volume   265.66792055
_cell_formula_units_Z   1
loop_
 _symmetry_equiv_pos_site_id
 _symmetry_equiv_pos_as_xyz
  1  'x, y, z'
loop_
 _atom_site_type_symbol
 _atom_site_label
 _atom_site_symmetry_multiplicity
 _atom_site_fract_x
 _atom_site_fract_y
 _atom_site_fract_z
 _atom_site_occupancy
  Se  Se0  1  0.00000000  0.00000000  0.00000000  1
  P  P1  1  0.50000000  0.50000000  0.50000000  1
  P  P2  1  0.50000000  0.50000000  0.00000000  1
  P  P3  1  0.50000000  0.00000000  0.50000000  1
  As  As4  1  0.00000000  0.50000000  0.50000000  1
  As  As5  1  0.00477449  0.25614377  0.81043254  1
  As  As6  1  0.76877064  0.54754385  0.36306122  1
  As  As7  1  0.37055189  0.49203989  0.06338633  1
  Li  Li8  1  0.61792363  0.54575907  0.35228091  1
  Li  Li9  1  0.98814575  0.38267503  0.28809148  1
  Li  Li10  1  0.74801477  0.14181981  0.37612335  1
  Y  Y11  1  0.49403222  0.22940864  0.42698261  1
  Y  Y12  1  0.10731587  0.61478627  0.54099205  1
