# generated using pymatgen
data_Li3Sb2P2Se
_symmetry_space_group_name_H-M   'P 1'
_cell_length_a   5.33241190
_cell_length_b   5.51066163
_cell_length_c   7.10626480
_cell_angle_alpha   93.72576691
_cell_angle_beta   98.32576198
_cell_angle_gamma   105.22068088
_symmetry_Int_Tables_number   1
_chemical_formula_structural   Li3Sb2P2Se
_chemical_formula_sum   'Li3 Sb2 P2 Se1'
_cell_volume   198.20637238
_cell_formula_units_Z   1
loop_
 _symmetry_equiv_pos_site_id
 _symmetry_equiv_pos_as_xyz
  1  'x, y, z'
loop_
 _atom_site_type_symbol
 _atom_site_label
 _atom_site_symmetry_multiplicity
 _atom_site_fract_x
 _atom_site_fract_y
 _atom_site_fract_z
 _atom_site_occupancy
  P  P0  1  0.12500000  0.00000000  0.25000000  1
  P  P1  1  0.00000000  0.00000000  0.00000000  1
  Se  Se2  1  0.37500000  0.00000000  0.25000000  1
  Li  Li3  1  0.25000000  0.25000000  0.25000000  1
  Li  Li4  1  0.00000000  0.25000000  0.12500000  1
  Li  Li5  1  0.12851231  0.51066615  0.01999077  1
  Sb  Sb6  1  0.56225087  0.39644818  0.11270678  1
  Sb  Sb7  1  0.14954968  0.21032595  0.18683572  1
