# generated using pymatgen
data_LiYP3
_symmetry_space_group_name_H-M   'P 1'
_cell_length_a   5.11198365
_cell_length_b   5.18979844
_cell_length_c   7.21217476
_cell_angle_alpha   94.98231448
_cell_angle_beta   100.85044514
_cell_angle_gamma   110.01197709
_symmetry_Int_Tables_number   1
_chemical_formula_structural   LiYP3
_chemical_formula_sum   'Li1 Y1 P3'
_cell_volume   174.18462493
_cell_formula_units_Z   1
loop_
 _symmetry_equiv_pos_site_id
 _symmetry_equiv_pos_as_xyz
  1  'x, y, z'
loop_
 _atom_site_type_symbol
 _atom_site_label
 _atom_site_symmetry_multiplicity
 _atom_site_fract_x
 _atom_site_fract_y
 _atom_site_fract_z
 _atom_site_occupancy
  P  P0  1  0.12500000  0.00000000  0.25000000  1
  P  P1  1  0.00000000  0.00000000  0.00000000  1
  P  P2  1  0.37500000  0.00000000  0.25000000  1
  Li  Li3  1  0.25000000  0.25000000  0.25000000  1
  Y  Y4  1  0.00000000  0.25000000  0.12500000  1
