# generated using pymatgen
data_Li2Si4Te3F12
_symmetry_space_group_name_H-M   'P 1'
_cell_length_a   9.56118356
_cell_length_b   15.65553677
_cell_length_c   8.43603341
_cell_angle_alpha   90.00000000
_cell_angle_beta   90.00000000
_cell_angle_gamma   90.00000000
_symmetry_Int_Tables_number   1
_chemical_formula_structural   Li2Si4Te3F12
_chemical_formula_sum   'Li8 Si16 Te12 F48'
_cell_volume   1262.75154884
_cell_formula_units_Z   4
loop_
 _symmetry_equiv_pos_site_id
 _symmetry_equiv_pos_as_xyz
  1  'x, y, z'
loop_
 _atom_site_type_symbol
 _atom_site_label
 _atom_site_symmetry_multiplicity
 _atom_site_fract_x
 _atom_site_fract_y
 _atom_site_fract_z
 _atom_site_occupancy
  F  F0  1  0.00000000  0.00000000  0.22600254  1
  F  F1  1  0.50000000  0.50000000  0.77399746  1
  F  F2  1  0.00000000  0.00000000  0.77399746  1
  F  F3  1  0.50000000  0.50000000  0.22600254  1
  F  F4  1  0.25503560  0.08480170  0.40869654  1
  F  F5  1  0.74496440  0.91519830  0.40869654  1
  F  F6  1  0.24496440  0.58480170  0.59130346  1
  F  F7  1  0.75503560  0.41519830  0.59130346  1
  F  F8  1  0.74496440  0.91519830  0.59130346  1
  F  F9  1  0.25503560  0.08480170  0.59130346  1
  F  F10  1  0.75503560  0.41519830  0.40869654  1
  F  F11  1  0.24496440  0.58480170  0.40869654  1
  F  F12  1  0.03472779  0.73229165  0.28201625  1
  F  F13  1  0.96527221  0.26770835  0.28201625  1
  F  F14  1  0.46527221  0.23229165  0.71798375  1
  F  F15  1  0.53472779  0.76770835  0.71798375  1
  F  F16  1  0.96527221  0.26770835  0.71798375  1
  F  F17  1  0.03472779  0.73229165  0.71798375  1
  F  F18  1  0.53472779  0.76770835  0.28201625  1
  F  F19  1  0.46527221  0.23229165  0.28201625  1
  F  F20  1  0.31807932  0.74647172  0.60534537  1
  F  F21  1  0.68192068  0.25352828  0.60534537  1
  F  F22  1  0.18192068  0.24647172  0.39465463  1
  F  F23  1  0.81807932  0.75352828  0.39465463  1
  F  F24  1  0.68192068  0.25352828  0.39465463  1
  F  F25  1  0.31807932  0.74647172  0.39465463  1
  F  F26  1  0.81807932  0.75352828  0.60534537  1
  F  F27  1  0.18192068  0.24647172  0.60534537  1
  F  F28  1  0.99194983  0.04119043  -0.00000000  1
  F  F29  1  0.00805017  0.95880957  -0.00000000  1
  F  F30  1  0.50805017  0.54119043  -0.00000000  1
  F  F31  1  0.49194983  0.45880957  -0.00000000  1
  F  F32  1  0.08929319  0.95798255  0.92274055  1
  F  F33  1  0.91070681  0.04201745  0.92274055  1
  F  F34  1  0.41070681  0.45798255  0.07725945  1
  F  F35  1  0.58929319  0.54201745  0.07725945  1
  F  F36  1  0.91070681  0.04201745  0.07725945  1
  F  F37  1  0.08929319  0.95798255  0.07725945  1
  F  F38  1  0.58929319  0.54201745  0.92274055  1
  F  F39  1  0.41070681  0.45798255  0.92274055  1
  F  F40  1  0.39865028  0.94902665  0.14728798  1
  F  F41  1  0.60134972  0.05097335  0.14728798  1
  F  F42  1  0.10134972  0.44902665  0.85271202  1
  F  F43  1  0.89865028  0.55097335  0.85271202  1
  F  F44  1  0.60134972  0.05097335  0.85271202  1
  F  F45  1  0.39865028  0.94902665  0.85271202  1
  F  F46  1  0.89865028  0.55097335  0.14728798  1
  F  F47  1  0.10134972  0.44902665  0.14728798  1
  Li  Li48  1  0.99783602  0.88284525  0.64768191  1
  Li  Li49  1  0.00216398  0.11715475  0.64768191  1
  Li  Li50  1  0.50216398  0.38284525  0.35231809  1
  Li  Li51  1  0.49783602  0.61715475  0.35231809  1
  Li  Li52  1  0.00216398  0.11715475  0.35231809  1
  Li  Li53  1  0.99783602  0.88284525  0.35231809  1
  Li  Li54  1  0.49783602  0.61715475  0.64768191  1
  Li  Li55  1  0.50216398  0.38284525  0.64768191  1
  Si  Si56  1  0.39757170  0.88831541  0.57957669  1
  Si  Si57  1  -0.39757170  -0.88831541  0.57957669  1
  Si  Si58  1  0.10242830  1.38831541  -0.57957669  1
  Si  Si59  1  0.89757170  -0.38831541  -0.57957669  1
  Si  Si60  1  -0.39757170  -0.88831541  -0.57957669  1
  Si  Si61  1  0.39757170  0.88831541  -0.57957669  1
  Si  Si62  1  0.89757170  -0.38831541  0.57957669  1
  Si  Si63  1  0.10242830  1.38831541  0.57957669  1
  Si  Si64  1  0.00000000  0.50000000  0.59484753  1
  Si  Si65  1  0.50000000  0.00000000  0.40515247  1
  Si  Si66  1  0.00000000  0.50000000  0.40515247  1
  Si  Si67  1  0.50000000  0.00000000  0.59484753  1
  Si  Si68  1  0.36171810  0.53003860  0.00000000  1
  Si  Si69  1  0.63828190  0.46996140  -0.00000000  1
  Si  Si70  1  0.13828190  0.03003860  -0.00000000  1
  Si  Si71  1  0.86171810  0.96996140  -0.00000000  1
  Te  Te72  1  0.00000000  0.00000000  0.50000000  1
  Te  Te73  1  0.50000000  0.50000000  0.50000000  1
  Te  Te74  1  0.93486057  0.14605692  0.87749496  1
  Te  Te75  1  0.06513943  0.85394308  0.87749496  1
  Te  Te76  1  0.56513943  0.64605692  0.12250504  1
  Te  Te77  1  0.43486057  0.35394308  0.12250504  1
  Te  Te78  1  0.06513943  0.85394308  0.12250504  1
  Te  Te79  1  0.93486057  0.14605692  0.12250504  1
  Te  Te80  1  0.43486057  0.35394308  0.87749496  1
  Te  Te81  1  0.56513943  0.64605692  0.87749496  1
  Te  Te82  1  0.00000000  0.50000000  -0.00000000  1
  Te  Te83  1  0.50000000  0.00000000  0.00000000  1
