# generated using pymatgen
data_LiF
_symmetry_space_group_name_H-M   'P 1'
_cell_length_a   6.92671496
_cell_length_b   8.09745677
_cell_length_c   11.44035979
_cell_angle_alpha   90.00000000
_cell_angle_beta   90.00000000
_cell_angle_gamma   90.00000000
_symmetry_Int_Tables_number   1
_chemical_formula_structural   LiF
_chemical_formula_sum   'Li24 F24'
_cell_volume   641.67576570
_cell_formula_units_Z   24
loop_
 _symmetry_equiv_pos_site_id
 _symmetry_equiv_pos_as_xyz
  1  'x, y, z'
loop_
 _atom_site_type_symbol
 _atom_site_label
 _atom_site_symmetry_multiplicity
 _atom_site_fract_x
 _atom_site_fract_y
 _atom_site_fract_z
 _atom_site_occupancy
  F  F0  1  0.50237826  0.56027826  0.29169603  1
  F  F1  1  0.99762174  0.43972174  0.79169603  1
  F  F2  1  0.49762174  0.06027826  0.70830397  1
  F  F3  1  0.00237826  0.93972174  0.20830397  1
  F  F4  1  0.49762174  0.43972174  0.70830397  1
  F  F5  1  0.00237826  0.56027826  0.20830397  1
  F  F6  1  0.50237826  0.93972174  0.29169603  1
  F  F7  1  0.99762174  0.06027826  0.79169603  1
  F  F8  1  0.65056967  0.20448584  0.56681819  1
  F  F9  1  0.84943033  0.79551416  0.06681819  1
  F  F10  1  0.34943033  0.70448584  0.43318181  1
  F  F11  1  0.15056967  0.29551416  0.93318181  1
  F  F12  1  0.34943033  0.79551416  0.43318181  1
  F  F13  1  0.15056967  0.20448584  0.93318181  1
  F  F14  1  0.65056967  0.29551416  0.56681819  1
  F  F15  1  0.84943033  0.70448584  0.06681819  1
  F  F16  1  0.30549264  0.25000000  0.14752781  1
  F  F17  1  0.19450736  0.75000000  0.64752781  1
  F  F18  1  0.69450736  0.75000000  0.85247219  1
  F  F19  1  0.80549264  0.25000000  0.35247219  1
  F  F20  1  0.00000000  0.00000000  0.50000000  1
  F  F21  1  0.50000000  -0.00000000  -0.00000000  1
  F  F22  1  0.00000000  0.50000000  0.50000000  1
  F  F23  1  0.50000000  0.50000000  0.00000000  1
  Li  Li24  1  0.82198620  0.59849587  0.33888857  1
  Li  Li25  1  -0.32198620  -0.59849587  0.83888857  1
  Li  Li26  1  -0.82198620  1.09849587  -0.33888857  1
  Li  Li27  1  1.32198620  -0.09849587  0.16111143  1
  Li  Li28  1  -0.82198620  -0.59849587  -0.33888857  1
  Li  Li29  1  1.32198620  0.59849587  0.16111143  1
  Li  Li30  1  0.82198620  -0.09849587  0.33888857  1
  Li  Li31  1  -0.32198620  1.09849587  0.83888857  1
  Li  Li32  1  0.63526941  0.06336457  0.48076689  1
  Li  Li33  1  0.86473059  0.93663543  0.98076689  1
  Li  Li34  1  0.36473059  0.56336457  0.51923311  1
  Li  Li35  1  0.13526941  0.43663543  0.01923311  1
  Li  Li36  1  0.36473059  0.93663543  0.51923311  1
  Li  Li37  1  0.13526941  0.06336457  0.01923311  1
  Li  Li38  1  0.63526941  0.43663543  0.48076689  1
  Li  Li39  1  0.86473059  0.56336457  0.98076689  1
  Li  Li40  1  0.87671735  0.63502536  0.54166068  1
  Li  Li41  1  0.62328265  0.36497464  0.04166068  1
  Li  Li42  1  0.12328265  0.13502536  0.45833932  1
  Li  Li43  1  0.37671735  0.86497464  0.95833932  1
  Li  Li44  1  0.12328265  0.36497464  0.45833932  1
  Li  Li45  1  0.37671735  0.63502536  0.95833932  1
  Li  Li46  1  0.87671735  0.86497464  0.54166068  1
  Li  Li47  1  0.62328265  0.13502536  0.04166068  1
