# generated using pymatgen
data_Li2Cu3As4P2Se
_symmetry_space_group_name_H-M   'P 1'
_cell_length_a   5.14318164
_cell_length_b   5.30720277
_cell_length_c   6.75571895
_cell_angle_alpha   94.09446194
_cell_angle_beta   98.43103006
_cell_angle_gamma   105.62337417
_symmetry_Int_Tables_number   1
_chemical_formula_structural   Li2Cu3As4P2Se
_chemical_formula_sum   'Li2 Cu3 As4 P2 Se1'
_cell_volume   174.47695347
_cell_formula_units_Z   1
loop_
 _symmetry_equiv_pos_site_id
 _symmetry_equiv_pos_as_xyz
  1  'x, y, z'
loop_
 _atom_site_type_symbol
 _atom_site_label
 _atom_site_symmetry_multiplicity
 _atom_site_fract_x
 _atom_site_fract_y
 _atom_site_fract_z
 _atom_site_occupancy
  Se  Se0  1  0.00000000  0.00000000  0.00000000  1
  Cu  Cu1  1  0.50000000  0.50000000  0.50000000  1
  Cu  Cu2  1  0.50000000  0.50000000  0.00000000  1
  Cu  Cu3  1  0.50000000  0.00000000  0.50000000  1
  P  P4  1  0.00000000  0.50000000  0.50000000  1
  P  P5  1  0.45746424  0.59142349  0.09062745  1
  As  As6  1  0.30374409  0.17028910  0.82373558  1
  As  As7  1  0.40061320  0.79600269  0.40898413  1
  As  As8  1  0.12138720  0.05018711  0.23030121  1
  As  As9  1  0.45932975  0.83878511  0.95863117  1
  Li  Li10  1  0.87989520  0.28109493  0.18192855  1
  Li  Li11  1  0.09081189  0.15280766  0.72819636  1
