# generated using pymatgen
data_Li2Si4Te3F12
_symmetry_space_group_name_H-M   'P 1'
_cell_length_a   12.16905596
_cell_length_b   12.16905596
_cell_length_c   8.52563692
_cell_angle_alpha   90.00000000
_cell_angle_beta   90.00000000
_cell_angle_gamma   90.00000000
_symmetry_Int_Tables_number   1
_chemical_formula_structural   Li2Si4Te3F12
_chemical_formula_sum   'Li8 Si16 Te12 F48'
_cell_volume   1262.52681212
_cell_formula_units_Z   4
loop_
 _symmetry_equiv_pos_site_id
 _symmetry_equiv_pos_as_xyz
  1  'x, y, z'
loop_
 _atom_site_type_symbol
 _atom_site_label
 _atom_site_symmetry_multiplicity
 _atom_site_fract_x
 _atom_site_fract_y
 _atom_site_fract_z
 _atom_site_occupancy
  F  F0  1  0.00000000  0.59167793  0.69794600  1
  F  F1  1  0.50000000  0.40832207  0.19794600  1
  F  F2  1  0.65832207  0.75000000  0.94794600  1
  F  F3  1  0.84167793  0.25000000  0.44794600  1
  F  F4  1  0.50000000  0.59167793  0.80205400  1
  F  F5  1  0.00000000  0.40832207  0.30205400  1
  F  F6  1  0.84167793  0.75000000  0.55205400  1
  F  F7  1  0.65832207  0.25000000  0.05205400  1
  F  F8  1  0.50000000  0.09167793  0.19794600  1
  F  F9  1  0.00000000  0.90832207  0.69794600  1
  F  F10  1  0.15832207  0.25000000  0.44794600  1
  F  F11  1  0.34167793  0.75000000  0.94794600  1
  F  F12  1  0.00000000  0.09167793  0.30205400  1
  F  F13  1  0.50000000  0.90832207  0.80205400  1
  F  F14  1  0.34167793  0.25000000  0.05205400  1
  F  F15  1  0.15832207  0.75000000  0.55205400  1
  F  F16  1  0.73291110  0.21551979  0.64552969  1
  F  F17  1  -0.23291110  -0.21551979  1.14552969  1
  F  F18  1  0.03448021  1.48291110  0.89552969  1
  F  F19  1  0.46551979  -0.48291110  1.39552969  1
  F  F20  1  -0.23291110  0.21551979  -0.14552969  1
  F  F21  1  0.73291110  -0.21551979  -0.64552969  1
  F  F22  1  0.46551979  1.48291110  -0.39552969  1
  F  F23  1  0.03448021  -0.48291110  0.10447031  1
  F  F24  1  -0.73291110  -0.21551979  -0.64552969  1
  F  F25  1  1.23291110  0.21551979  -0.14552969  1
  F  F26  1  0.96551979  -0.48291110  0.10447031  1
  F  F27  1  0.53448021  1.48291110  -0.39552969  1
  F  F28  1  1.23291110  -0.21551979  1.14552969  1
  F  F29  1  -0.73291110  0.21551979  0.64552969  1
  F  F30  1  0.53448021  -0.48291110  1.39552969  1
  F  F31  1  0.96551979  1.48291110  0.89552969  1
  F  F32  1  1.23291110  0.71551979  1.14552969  1
  F  F33  1  0.26708890  0.28448021  1.64552969  1
  F  F34  1  0.53448021  1.98291110  1.39552969  1
  F  F35  1  0.96551979  0.01708890  1.89552969  1
  F  F36  1  0.26708890  0.71551979  0.35447031  1
  F  F37  1  1.23291110  0.28448021  -0.14552969  1
  F  F38  1  0.96551979  1.98291110  0.10447031  1
  F  F39  1  0.53448021  0.01708890  0.60447031  1
  F  F40  1  -0.23291110  0.28448021  -0.14552969  1
  F  F41  1  1.73291110  0.71551979  0.35447031  1
  F  F42  1  1.46551979  0.01708890  0.60447031  1
  F  F43  1  1.03448021  1.98291110  0.10447031  1
  F  F44  1  1.73291110  0.28448021  1.64552969  1
  F  F45  1  -0.23291110  0.71551979  1.14552969  1
  F  F46  1  1.03448021  0.01708890  1.89552969  1
  F  F47  1  1.46551979  1.98291110  1.39552969  1
  Li  Li48  1  0.00000000  0.00000000  0.50000000  1
  Li  Li49  1  0.50000000  0.00000000  0.00000000  1
  Li  Li50  1  0.25000000  0.75000000  0.75000000  1
  Li  Li51  1  0.25000000  0.25000000  0.25000000  1
  Li  Li52  1  0.50000000  0.50000000  0.00000000  1
  Li  Li53  1  0.00000000  0.50000000  0.50000000  1
  Li  Li54  1  0.75000000  0.25000000  0.25000000  1
  Li  Li55  1  0.75000000  0.75000000  0.75000000  1
  Si  Si56  1  0.25225676  0.00000000  0.00000000  1
  Si  Si57  1  0.24774324  0.00000000  0.50000000  1
  Si  Si58  1  0.25000000  0.00225676  0.25000000  1
  Si  Si59  1  0.25000000  0.99774324  0.75000000  1
  Si  Si60  1  0.74774324  0.00000000  0.00000000  1
  Si  Si61  1  0.75225676  0.00000000  0.50000000  1
  Si  Si62  1  0.75000000  0.99774324  0.75000000  1
  Si  Si63  1  0.75000000  0.00225676  0.25000000  1
  Si  Si64  1  0.75225676  0.50000000  0.50000000  1
  Si  Si65  1  0.74774324  0.50000000  -0.00000000  1
  Si  Si66  1  0.75000000  0.50225676  0.75000000  1
  Si  Si67  1  0.75000000  0.49774324  0.25000000  1
  Si  Si68  1  0.24774324  0.50000000  0.50000000  1
  Si  Si69  1  0.25225676  0.50000000  0.00000000  1
  Si  Si70  1  0.25000000  0.49774324  0.25000000  1
  Si  Si71  1  0.25000000  0.50225676  0.75000000  1
  Te  Te72  1  0.00000000  0.75000000  0.12500000  1
  Te  Te73  1  0.50000000  0.75000000  0.37500000  1
  Te  Te74  1  0.50000000  0.25000000  0.62500000  1
  Te  Te75  1  0.00000000  0.25000000  0.87500000  1
  Te  Te76  1  0.00000000  0.00000000  0.00000000  1
  Te  Te77  1  0.50000000  0.00000000  0.50000000  1
  Te  Te78  1  0.25000000  0.75000000  0.25000000  1
  Te  Te79  1  0.25000000  0.25000000  0.75000000  1
  Te  Te80  1  0.50000000  0.50000000  0.50000000  1
  Te  Te81  1  0.00000000  0.50000000  0.00000000  1
  Te  Te82  1  0.75000000  0.25000000  0.75000000  1
  Te  Te83  1  0.75000000  0.75000000  0.25000000  1
