# generated using pymatgen
data_LiF
_symmetry_space_group_name_H-M   'P 1'
_cell_length_a   7.21799564
_cell_length_b   7.21799564
_cell_length_c   10.62288191
_cell_angle_alpha   90.00000000
_cell_angle_beta   90.00000000
_cell_angle_gamma   120.00000000
_symmetry_Int_Tables_number   1
_chemical_formula_structural   LiF
_chemical_formula_sum   'Li20 F20'
_cell_volume   479.29866118
_cell_formula_units_Z   20
loop_
 _symmetry_equiv_pos_site_id
 _symmetry_equiv_pos_as_xyz
  1  'x, y, z'
loop_
 _atom_site_type_symbol
 _atom_site_label
 _atom_site_symmetry_multiplicity
 _atom_site_fract_x
 _atom_site_fract_y
 _atom_site_fract_z
 _atom_site_occupancy
  F  F0  1  0.42992056  0.01793911  0.89758408  1
  F  F1  1  0.98206089  0.41198145  0.89758408  1
  F  F2  1  0.58801855  0.57007944  0.89758408  1
  F  F3  1  0.98206089  0.57007944  0.10241592  1
  F  F4  1  0.58801855  0.01793911  0.10241592  1
  F  F5  1  0.42992056  0.41198145  0.10241592  1
  F  F6  1  0.66666667  0.33333333  0.64670390  1
  F  F7  1  0.66666667  0.33333333  0.35329610  1
  F  F8  1  0.75499324  0.11477997  0.34663168  1
  F  F9  1  0.88522003  0.64021327  0.34663168  1
  F  F10  1  0.35978673  0.24500676  0.34663168  1
  F  F11  1  0.88522003  0.24500676  0.65336832  1
  F  F12  1  0.35978673  0.11477997  0.65336832  1
  F  F13  1  0.75499324  0.64021327  0.65336832  1
  F  F14  1  0.15945605  0.63524849  0.61240658  1
  F  F15  1  0.36475151  0.52420757  0.61240658  1
  F  F16  1  0.47579243  0.84054395  0.61240658  1
  F  F17  1  0.36475151  0.84054395  0.38759342  1
  F  F18  1  0.47579243  0.63524849  0.38759342  1
  F  F19  1  0.15945605  0.52420757  0.38759342  1
  Li  Li20  1  0.18468441  0.20551351  0.10299654  1
  Li  Li21  1  -0.20551351  -0.02082911  0.10299654  1
  Li  Li22  1  0.02082911  -0.18468441  0.10299654  1
  Li  Li23  1  -0.20551351  -0.18468441  -0.10299654  1
  Li  Li24  1  0.02082911  0.20551351  -0.10299654  1
  Li  Li25  1  0.18468441  -0.02082911  -0.10299654  1
  Li  Li26  1  0.71003001  0.85431438  0.37678364  1
  Li  Li27  1  0.14568562  0.85571563  0.37678364  1
  Li  Li28  1  0.14428437  0.28996999  0.37678364  1
  Li  Li29  1  0.14568562  0.28996999  0.62321636  1
  Li  Li30  1  0.14428437  0.85431438  0.62321636  1
  Li  Li31  1  0.71003001  0.85571563  0.62321636  1
  Li  Li32  1  0.16029137  0.03856842  0.21997804  1
  Li  Li33  1  0.96143158  0.12172295  0.21997804  1
  Li  Li34  1  0.87827705  0.83970863  0.21997804  1
  Li  Li35  1  0.96143158  0.83970863  0.78002196  1
  Li  Li36  1  0.87827705  0.03856842  0.78002196  1
  Li  Li37  1  0.16029137  0.12172295  0.78002196  1
  Li  Li38  1  0.00000000  0.00000000  0.50000000  1
  Li  Li39  1  0.00000000  0.00000000  0.00000000  1
