# generated using pymatgen
data_LiF
_symmetry_space_group_name_H-M   'P 1'
_cell_length_a   13.86296985
_cell_length_b   13.86296985
_cell_length_c   9.23084084
_cell_angle_alpha   90.00000000
_cell_angle_beta   90.00000000
_cell_angle_gamma   120.00000000
_symmetry_Int_Tables_number   1
_chemical_formula_structural   LiF
_chemical_formula_sum   'Li55 F55'
_cell_volume   1536.32979071
_cell_formula_units_Z   55
loop_
 _symmetry_equiv_pos_site_id
 _symmetry_equiv_pos_as_xyz
  1  'x, y, z'
loop_
 _atom_site_type_symbol
 _atom_site_label
 _atom_site_symmetry_multiplicity
 _atom_site_fract_x
 _atom_site_fract_y
 _atom_site_fract_z
 _atom_site_occupancy
  F  F0  1  0.21765671  0.99364940  0.51619625  1
  F  F1  1  0.00635060  0.22400731  0.51619625  1
  F  F2  1  0.77599269  0.78234329  0.51619625  1
  F  F3  1  0.00635060  0.78234329  0.48380375  1
  F  F4  1  0.77599269  0.99364940  0.48380375  1
  F  F5  1  0.21765671  0.22400731  0.48380375  1
  F  F6  1  0.33333333  0.66666667  0.27915944  1
  F  F7  1  0.33333333  0.66666667  0.72084056  1
  F  F8  1  0.05430909  0.60036294  0.80442928  1
  F  F9  1  0.39963706  0.45394615  0.80442928  1
  F  F10  1  0.54605385  0.94569091  0.80442928  1
  F  F11  1  0.39963706  0.94569091  0.19557072  1
  F  F12  1  0.54605385  0.60036294  0.19557072  1
  F  F13  1  0.05430909  0.45394615  0.19557072  1
  F  F14  1  0.05783110  0.09757608  0.84824820  1
  F  F15  1  0.90242392  0.96025501  0.84824820  1
  F  F16  1  0.03974499  0.94216890  0.84824820  1
  F  F17  1  0.90242392  0.94216890  0.15175180  1
  F  F18  1  0.03974499  0.09757608  0.15175180  1
  F  F19  1  0.05783110  0.96025501  0.15175180  1
  F  F20  1  0.51015454  0.96825041  0.75111736  1
  F  F21  1  0.03174959  0.54190413  0.75111736  1
  F  F22  1  0.45809587  0.48984546  0.75111736  1
  F  F23  1  0.03174959  0.48984546  0.24888264  1
  F  F24  1  0.45809587  0.96825041  0.24888264  1
  F  F25  1  0.51015454  0.54190413  0.24888264  1
  F  F26  1  0.31837597  0.99281782  0.31509730  1
  F  F27  1  0.00718218  0.32555815  0.31509730  1
  F  F28  1  0.67444185  0.68162403  0.31509730  1
  F  F29  1  0.00718218  0.68162403  0.68490270  1
  F  F30  1  0.67444185  0.99281782  0.68490270  1
  F  F31  1  0.31837597  0.32555815  0.68490270  1
  F  F32  1  0.66666667  0.33333333  0.94932892  1
  F  F33  1  0.66666667  0.33333333  0.05067108  1
  F  F34  1  0.58387810  0.41838096  0.40586493  1
  F  F35  1  0.58161904  0.16549714  0.40586493  1
  F  F36  1  0.83450286  0.41612190  0.40586493  1
  F  F37  1  0.58161904  0.41612190  0.59413507  1
  F  F38  1  0.83450286  0.41838096  0.59413507  1
  F  F39  1  0.58387810  0.16549714  0.59413507  1
  F  F40  1  0.41285309  0.63383331  0.95253265  1
  F  F41  1  0.36616669  0.77901978  0.95253265  1
  F  F42  1  0.22098022  0.58714691  0.95253265  1
  F  F43  1  0.36616669  0.58714691  0.04746735  1
  F  F44  1  0.22098022  0.63383331  0.04746735  1
  F  F45  1  0.41285309  0.77901978  0.04746735  1
  F  F46  1  0.58962196  0.52858392  0.70878404  1
  F  F47  1  0.47141608  0.06103804  0.70878404  1
  F  F48  1  0.93896196  0.41037804  0.70878404  1
  F  F49  1  0.47141608  0.41037804  0.29121596  1
  F  F50  1  0.93896196  0.52858392  0.29121596  1
  F  F51  1  0.58962196  0.06103804  0.29121596  1
  F  F52  1  0.56497747  0.43502253  0.50000000  1
  F  F53  1  0.56497747  0.12995493  0.50000000  1
  F  F54  1  0.87004507  0.43502253  0.50000000  1
  Li  Li55  1  0.31213779  0.84550560  0.83239626  1
  Li  Li56  1  -0.84550560  -0.53336781  0.83239626  1
  Li  Li57  1  0.53336781  -0.31213779  0.83239626  1
  Li  Li58  1  -0.84550560  -0.31213779  -0.83239626  1
  Li  Li59  1  0.53336781  0.84550560  -0.83239626  1
  Li  Li60  1  0.31213779  -0.53336781  -0.83239626  1
  Li  Li61  1  0.31819038  0.22475885  0.99879702  1
  Li  Li62  1  0.77524115  0.09343154  0.99879702  1
  Li  Li63  1  0.90656846  0.68180962  0.99879702  1
  Li  Li64  1  0.77524115  0.68180962  0.00120298  1
  Li  Li65  1  0.90656846  0.22475885  0.00120298  1
  Li  Li66  1  0.31819038  0.09343154  0.00120298  1
  Li  Li67  1  0.11627813  0.88372187  0.50000000  1
  Li  Li68  1  0.11627813  0.23255626  0.50000000  1
  Li  Li69  1  0.76744374  0.88372187  0.50000000  1
  Li  Li70  1  0.78166574  0.96689570  0.60934564  1
  Li  Li71  1  0.03310430  0.81477004  0.60934564  1
  Li  Li72  1  0.18522996  0.21833426  0.60934564  1
  Li  Li73  1  0.03310430  0.21833426  0.39065436  1
  Li  Li74  1  0.18522996  0.96689570  0.39065436  1
  Li  Li75  1  0.78166574  0.81477004  0.39065436  1
  Li  Li76  1  0.49482477  0.60381243  0.06585206  1
  Li  Li77  1  0.39618757  0.89101234  0.06585206  1
  Li  Li78  1  0.10898766  0.50517523  0.06585206  1
  Li  Li79  1  0.39618757  0.50517523  0.93414794  1
  Li  Li80  1  0.10898766  0.60381243  0.93414794  1
  Li  Li81  1  0.49482477  0.89101234  0.93414794  1
  Li  Li82  1  0.82039003  0.56129131  0.16380441  1
  Li  Li83  1  0.43870869  0.25909871  0.16380441  1
  Li  Li84  1  0.74090129  0.17960997  0.16380441  1
  Li  Li85  1  0.43870869  0.17960997  0.83619559  1
  Li  Li86  1  0.74090129  0.56129131  0.83619559  1
  Li  Li87  1  0.82039003  0.25909871  0.83619559  1
  Li  Li88  1  0.88051341  0.36574817  0.55193259  1
  Li  Li89  1  0.63425183  0.51476524  0.55193259  1
  Li  Li90  1  0.48523476  0.11948659  0.55193259  1
  Li  Li91  1  0.63425183  0.11948659  0.44806741  1
  Li  Li92  1  0.48523476  0.36574817  0.44806741  1
  Li  Li93  1  0.88051341  0.51476524  0.44806741  1
  Li  Li94  1  0.66666667  0.33333333  0.50000000  1
  Li  Li95  1  0.33333333  0.66666667  0.00000000  1
  Li  Li96  1  0.08967319  0.72396759  0.87407533  1
  Li  Li97  1  0.27603241  0.36570560  0.87407533  1
  Li  Li98  1  0.63429440  0.91032681  0.87407533  1
  Li  Li99  1  0.27603241  0.91032681  0.12592467  1
  Li  Li100  1  0.63429440  0.72396759  0.12592467  1
  Li  Li101  1  0.08967319  0.36570560  0.12592467  1
  Li  Li102  1  0.00000000  0.00000000  0.50000000  1
  Li  Li103  1  0.92270149  0.83340792  0.32692081  1
  Li  Li104  1  0.16659208  0.08929357  0.32692081  1
  Li  Li105  1  0.91070643  0.07729851  0.32692081  1
  Li  Li106  1  0.16659208  0.07729851  0.67307919  1
  Li  Li107  1  0.91070643  0.83340792  0.67307919  1
  Li  Li108  1  0.92270149  0.08929357  0.67307919  1
  Li  Li109  1  0.33333333  0.66666667  0.50000000  1
