# generated using pymatgen
data_LiF
_symmetry_space_group_name_H-M   'P 1'
_cell_length_a   13.72609343
_cell_length_b   13.72609343
_cell_length_c   11.22056097
_cell_angle_alpha   90.00000000
_cell_angle_beta   90.00000000
_cell_angle_gamma   120.00000000
_symmetry_Int_Tables_number   1
_chemical_formula_structural   LiF
_chemical_formula_sum   'Li48 F48'
_cell_volume   1830.79240877
_cell_formula_units_Z   48
loop_
 _symmetry_equiv_pos_site_id
 _symmetry_equiv_pos_as_xyz
  1  'x, y, z'
loop_
 _atom_site_type_symbol
 _atom_site_label
 _atom_site_symmetry_multiplicity
 _atom_site_fract_x
 _atom_site_fract_y
 _atom_site_fract_z
 _atom_site_occupancy
  F  F0  1  0.60876998  0.45426152  0.41970116  1
  F  F1  1  0.54573848  0.15450846  0.41970116  1
  F  F2  1  0.84549154  0.39123002  0.41970116  1
  F  F3  1  0.45426152  0.60876998  0.08029884  1
  F  F4  1  0.15450846  0.54573848  0.08029884  1
  F  F5  1  0.39123002  0.84549154  0.08029884  1
  F  F6  1  0.39123002  0.54573848  0.58029884  1
  F  F7  1  0.45426152  0.84549154  0.58029884  1
  F  F8  1  0.15450846  0.60876998  0.58029884  1
  F  F9  1  0.54573848  0.39123002  0.91970116  1
  F  F10  1  0.84549154  0.45426152  0.91970116  1
  F  F11  1  0.60876998  0.15450846  0.91970116  1
  F  F12  1  0.27543665  0.78759486  0.75303449  1
  F  F13  1  0.21240514  0.48784179  0.75303449  1
  F  F14  1  0.51215821  0.72456335  0.75303449  1
  F  F15  1  0.12092819  0.94210331  0.41363217  1
  F  F16  1  0.82117512  0.87907181  0.41363217  1
  F  F17  1  0.05789669  0.17882488  0.41363217  1
  F  F18  1  0.05789669  0.87907181  0.91363217  1
  F  F19  1  0.12092819  0.17882488  0.91363217  1
  F  F20  1  0.82117512  0.94210331  0.91363217  1
  F  F21  1  0.21240514  0.72456335  0.25303449  1
  F  F22  1  0.51215821  0.78759486  0.25303449  1
  F  F23  1  0.27543665  0.48784179  0.25303449  1
  F  F24  1  0.94210331  0.12092819  0.08636783  1
  F  F25  1  0.87907181  0.82117512  0.08636783  1
  F  F26  1  0.17882488  0.05789669  0.08636783  1
  F  F27  1  0.78759486  0.27543665  0.74696551  1
  F  F28  1  0.48784179  0.21240514  0.74696551  1
  F  F29  1  0.72456335  0.51215821  0.74696551  1
  F  F30  1  0.72456335  0.21240514  0.24696551  1
  F  F31  1  0.78759486  0.51215821  0.24696551  1
  F  F32  1  0.48784179  0.27543665  0.24696551  1
  F  F33  1  0.87907181  0.05789669  0.58636783  1
  F  F34  1  0.17882488  0.12092819  0.58636783  1
  F  F35  1  0.94210331  0.82117512  0.58636783  1
  F  F36  1  0.00000000  0.00000000  0.63884435  1
  F  F37  1  0.00000000  0.00000000  0.86115565  1
  F  F38  1  0.00000000  0.00000000  0.36115565  1
  F  F39  1  0.00000000  0.00000000  0.13884435  1
  F  F40  1  0.66666667  0.33333333  0.97217768  1
  F  F41  1  0.66666667  0.33333333  0.19448899  1
  F  F42  1  0.66666667  0.33333333  0.69448899  1
  F  F43  1  0.66666667  0.33333333  0.47217768  1
  F  F44  1  0.33333333  0.66666667  0.30551101  1
  F  F45  1  0.33333333  0.66666667  0.52782232  1
  F  F46  1  0.33333333  0.66666667  0.02782232  1
  F  F47  1  0.33333333  0.66666667  0.80551101  1
  Li  Li48  1  0.91311195  0.96837352  0.90633832  1
  Li  Li49  1  -0.96837352  -0.05526157  0.90633832  1
  Li  Li50  1  0.05526157  -0.91311195  0.90633832  1
  Li  Li51  1  0.96837352  0.91311195  -0.40633832  1
  Li  Li52  1  -0.05526157  -0.96837352  -0.40633832  1
  Li  Li53  1  -0.91311195  0.05526157  -0.40633832  1
  Li  Li54  1  -0.91311195  -0.96837352  -0.90633832  1
  Li  Li55  1  0.96837352  0.05526157  -0.90633832  1
  Li  Li56  1  -0.05526157  0.91311195  -0.90633832  1
  Li  Li57  1  -0.96837352  -0.91311195  1.40633832  1
  Li  Li58  1  0.05526157  0.96837352  1.40633832  1
  Li  Li59  1  0.91311195  -0.05526157  1.40633832  1
  Li  Li60  1  1.57977861  1.30170685  1.23967165  1
  Li  Li61  1  -0.30170685  0.27807177  1.23967165  1
  Li  Li62  1  0.72192823  -0.57977861  1.23967165  1
  Li  Li63  1  1.63504018  1.24644528  -0.07300498  1
  Li  Li64  1  0.61140510  -0.63504018  -0.07300498  1
  Li  Li65  1  -0.24644528  0.38859490  -0.07300498  1
  Li  Li66  1  -0.24644528  -0.63504018  -0.57300498  1
  Li  Li67  1  1.63504018  0.38859490  -0.57300498  1
  Li  Li68  1  0.61140510  1.24644528  -0.57300498  1
  Li  Li69  1  -0.30170685  -0.57977861  1.73967165  1
  Li  Li70  1  0.72192823  1.30170685  1.73967165  1
  Li  Li71  1  1.57977861  0.27807177  1.73967165  1
  Li  Li72  1  1.24644528  1.63504018  1.57300498  1
  Li  Li73  1  -0.63504018  0.61140510  1.57300498  1
  Li  Li74  1  0.38859490  -0.24644528  1.57300498  1
  Li  Li75  1  1.30170685  1.57977861  0.26032835  1
  Li  Li76  1  0.27807177  -0.30170685  0.26032835  1
  Li  Li77  1  -0.57977861  0.72192823  0.26032835  1
  Li  Li78  1  -0.57977861  -0.30170685  -0.23967165  1
  Li  Li79  1  1.30170685  0.72192823  -0.23967165  1
  Li  Li80  1  0.27807177  1.57977861  -0.23967165  1
  Li  Li81  1  -0.63504018  -0.24644528  2.07300498  1
  Li  Li82  1  0.38859490  1.63504018  2.07300498  1
  Li  Li83  1  1.24644528  0.61140510  2.07300498  1
  Li  Li84  1  0.00000000  0.00000000  0.00000000  1
  Li  Li85  1  0.00000000  0.00000000  0.50000000  1
  Li  Li86  1  0.66666667  0.33333333  0.33333333  1
  Li  Li87  1  0.66666667  0.33333333  0.83333333  1
  Li  Li88  1  0.33333333  0.66666667  0.66666667  1
  Li  Li89  1  0.33333333  0.66666667  0.16666667  1
  Li  Li90  1  0.00000000  0.00000000  0.25000000  1
  Li  Li91  1  0.00000000  0.00000000  0.75000000  1
  Li  Li92  1  0.66666667  0.33333333  0.58333333  1
  Li  Li93  1  0.66666667  0.33333333  0.08333333  1
  Li  Li94  1  0.33333333  0.66666667  0.91666667  1
  Li  Li95  1  0.33333333  0.66666667  0.41666667  1
