# generated using pymatgen
data_LiF
_symmetry_space_group_name_H-M   'P 1'
_cell_length_a   8.36693351
_cell_length_b   10.34783613
_cell_length_c   7.00174034
_cell_angle_alpha   90.00000000
_cell_angle_beta   90.00000000
_cell_angle_gamma   90.00000000
_symmetry_Int_Tables_number   1
_chemical_formula_structural   LiF
_chemical_formula_sum   'Li24 F24'
_cell_volume   606.20827590
_cell_formula_units_Z   24
loop_
 _symmetry_equiv_pos_site_id
 _symmetry_equiv_pos_as_xyz
  1  'x, y, z'
loop_
 _atom_site_type_symbol
 _atom_site_label
 _atom_site_symmetry_multiplicity
 _atom_site_fract_x
 _atom_site_fract_y
 _atom_site_fract_z
 _atom_site_occupancy
  F  F0  1  0.10431817  0.34334127  0.74232658  1
  F  F1  1  0.39568183  0.65665873  0.24232658  1
  F  F2  1  0.89568183  0.84334127  0.25767342  1
  F  F3  1  0.60431817  0.15665873  0.75767342  1
  F  F4  1  0.89568183  0.65665873  0.25767342  1
  F  F5  1  0.60431817  0.34334127  0.75767342  1
  F  F6  1  0.10431817  0.15665873  0.74232658  1
  F  F7  1  0.39568183  0.84334127  0.24232658  1
  F  F8  1  0.00000000  0.00000000  0.00000000  1
  F  F9  1  0.50000000  0.00000000  0.50000000  1
  F  F10  1  0.00000000  0.50000000  0.00000000  1
  F  F11  1  0.50000000  0.50000000  0.50000000  1
  F  F12  1  0.27718774  0.25000000  0.35137129  1
  F  F13  1  0.22281226  0.75000000  0.85137129  1
  F  F14  1  0.72281226  0.75000000  0.64862871  1
  F  F15  1  0.77718774  0.25000000  0.14862871  1
  F  F16  1  0.28106749  0.25000000  0.94904659  1
  F  F17  1  0.21893251  0.75000000  0.44904659  1
  F  F18  1  0.71893251  0.75000000  0.05095341  1
  F  F19  1  0.78106749  0.25000000  0.55095341  1
  F  F20  1  0.00000000  0.00000000  0.50000000  1
  F  F21  1  0.50000000  0.00000000  0.00000000  1
  F  F22  1  0.00000000  0.50000000  0.50000000  1
  F  F23  1  0.50000000  0.50000000  0.00000000  1
  Li  Li24  1  0.59842056  0.25000000  0.18699835  1
  Li  Li25  1  0.90157944  0.75000000  0.68699835  1
  Li  Li26  1  0.40157944  0.75000000  0.81300165  1
  Li  Li27  1  0.09842056  0.25000000  0.31300165  1
  Li  Li28  1  0.81859905  0.25000000  0.87168265  1
  Li  Li29  1  0.68140095  0.75000000  0.37168265  1
  Li  Li30  1  0.18140095  0.75000000  0.12831735  1
  Li  Li31  1  0.31859905  0.25000000  0.62831735  1
  Li  Li32  1  0.37446899  0.45325182  0.04106959  1
  Li  Li33  1  0.12553101  -0.45325182  0.54106959  1
  Li  Li34  1  -0.37446899  0.95325182  -0.04106959  1
  Li  Li35  1  0.87446899  0.04674818  0.45893041  1
  Li  Li36  1  -0.37446899  -0.45325182  -0.04106959  1
  Li  Li37  1  0.87446899  0.45325182  0.45893041  1
  Li  Li38  1  0.37446899  0.04674818  0.04106959  1
  Li  Li39  1  0.12553101  0.95325182  0.54106959  1
  Li  Li40  1  0.42739339  0.06189485  0.57703461  1
  Li  Li41  1  0.07260661  0.93810515  0.07703461  1
  Li  Li42  1  0.57260661  0.56189485  0.42296539  1
  Li  Li43  1  0.92739339  0.43810515  0.92296539  1
  Li  Li44  1  0.57260661  0.93810515  0.42296539  1
  Li  Li45  1  0.92739339  0.06189485  0.92296539  1
  Li  Li46  1  0.42739339  0.43810515  0.57703461  1
  Li  Li47  1  0.07260661  0.56189485  0.07703461  1
