# generated using pymatgen
data_LiF
_symmetry_space_group_name_H-M   'P 1'
_cell_length_a   12.31602819
_cell_length_b   12.77239477
_cell_length_c   16.66451510
_cell_angle_alpha   90.00000000
_cell_angle_beta   90.00000000
_cell_angle_gamma   90.00000000
_symmetry_Int_Tables_number   1
_chemical_formula_structural   LiF
_chemical_formula_sum   'Li68 F68'
_cell_volume   2621.41444851
_cell_formula_units_Z   68
loop_
 _symmetry_equiv_pos_site_id
 _symmetry_equiv_pos_as_xyz
  1  'x, y, z'
loop_
 _atom_site_type_symbol
 _atom_site_label
 _atom_site_symmetry_multiplicity
 _atom_site_fract_x
 _atom_site_fract_y
 _atom_site_fract_z
 _atom_site_occupancy
  F  F0  1  0.44300554  0.00527436  0.10324714  1
  F  F1  1  0.55699446  0.99472564  0.10324714  1
  F  F2  1  0.05699446  0.50527436  0.89675286  1
  F  F3  1  0.94300554  0.49472564  0.89675286  1
  F  F4  1  0.55699446  0.99472564  0.89675286  1
  F  F5  1  0.44300554  0.00527436  0.89675286  1
  F  F6  1  0.94300554  0.49472564  0.10324714  1
  F  F7  1  0.05699446  0.50527436  0.10324714  1
  F  F8  1  0.42572045  0.78516350  0.31340036  1
  F  F9  1  0.57427955  0.21483650  0.31340036  1
  F  F10  1  0.07427955  0.28516350  0.68659964  1
  F  F11  1  0.92572045  0.71483650  0.68659964  1
  F  F12  1  0.57427955  0.21483650  0.68659964  1
  F  F13  1  0.42572045  0.78516350  0.68659964  1
  F  F14  1  0.92572045  0.71483650  0.31340036  1
  F  F15  1  0.07427955  0.28516350  0.31340036  1
  F  F16  1  0.00000000  0.00000000  0.50000000  1
  F  F17  1  0.50000000  0.50000000  0.50000000  1
  F  F18  1  0.16438065  0.15738241  0.22918521  1
  F  F19  1  0.83561935  0.84261759  0.22918521  1
  F  F20  1  0.33561935  0.65738241  0.77081479  1
  F  F21  1  0.66438065  0.34261759  0.77081479  1
  F  F22  1  0.83561935  0.84261759  0.77081479  1
  F  F23  1  0.16438065  0.15738241  0.77081479  1
  F  F24  1  0.66438065  0.34261759  0.22918521  1
  F  F25  1  0.33561935  0.65738241  0.22918521  1
  F  F26  1  0.12109775  0.56455822  0.58682288  1
  F  F27  1  0.87890225  0.43544178  0.58682288  1
  F  F28  1  0.37890225  0.06455822  0.41317712  1
  F  F29  1  0.62109775  0.93544178  0.41317712  1
  F  F30  1  0.87890225  0.43544178  0.41317712  1
  F  F31  1  0.12109775  0.56455822  0.41317712  1
  F  F32  1  0.62109775  0.93544178  0.58682288  1
  F  F33  1  0.37890225  0.06455822  0.58682288  1
  F  F34  1  0.00000000  0.50000000  0.50000000  1
  F  F35  1  0.50000000  0.00000000  0.50000000  1
  F  F36  1  0.76314759  0.59051501  0.93157814  1
  F  F37  1  0.23685241  0.40948499  0.93157814  1
  F  F38  1  0.73685241  0.09051501  0.06842186  1
  F  F39  1  0.26314759  0.90948499  0.06842186  1
  F  F40  1  0.23685241  0.40948499  0.06842186  1
  F  F41  1  0.76314759  0.59051501  0.06842186  1
  F  F42  1  0.26314759  0.90948499  0.93157814  1
  F  F43  1  0.73685241  0.09051501  0.93157814  1
  F  F44  1  0.32068367  0.08942654  0.00000000  1
  F  F45  1  0.67931633  0.91057346  0.00000000  1
  F  F46  1  0.17931633  0.58942654  0.00000000  1
  F  F47  1  0.82068367  0.41057346  0.00000000  1
  F  F48  1  0.43768255  0.54274990  0.50000000  1
  F  F49  1  0.56231745  0.45725010  0.50000000  1
  F  F50  1  0.06231745  0.04274990  0.50000000  1
  F  F51  1  0.93768255  0.95725010  0.50000000  1
  F  F52  1  0.00000000  0.50000000  0.00000000  1
  F  F53  1  0.50000000  0.00000000  0.00000000  1
  F  F54  1  0.68758044  0.18295022  0.61234109  1
  F  F55  1  0.31241956  0.81704978  0.61234109  1
  F  F56  1  0.81241956  0.68295022  0.38765891  1
  F  F57  1  0.18758044  0.31704978  0.38765891  1
  F  F58  1  0.31241956  0.81704978  0.38765891  1
  F  F59  1  0.68758044  0.18295022  0.38765891  1
  F  F60  1  0.18758044  0.31704978  0.61234109  1
  F  F61  1  0.81241956  0.68295022  0.61234109  1
  F  F62  1  0.00000000  0.00000000  0.00000000  1
  F  F63  1  0.50000000  0.50000000  0.00000000  1
  F  F64  1  0.19911929  0.94312655  0.00000000  1
  F  F65  1  0.80088071  0.05687345  -0.00000000  1
  F  F66  1  0.30088071  0.44312655  0.00000000  1
  F  F67  1  0.69911929  0.55687345  0.00000000  1
  Li  Li68  1  0.35350988  0.68137578  0.86779670  1
  Li  Li69  1  -0.35350988  -0.68137578  0.86779670  1
  Li  Li70  1  0.14649012  1.18137578  -0.86779670  1
  Li  Li71  1  0.85350988  -0.18137578  -0.86779670  1
  Li  Li72  1  -0.35350988  -0.68137578  -0.86779670  1
  Li  Li73  1  0.35350988  0.68137578  -0.86779670  1
  Li  Li74  1  0.85350988  -0.18137578  0.86779670  1
  Li  Li75  1  0.14649012  1.18137578  0.86779670  1
  Li  Li76  1  0.36274035  0.45077814  0.79378554  1
  Li  Li77  1  0.63725965  0.54922186  0.79378554  1
  Li  Li78  1  0.13725965  0.95077814  0.20621446  1
  Li  Li79  1  0.86274035  0.04922186  0.20621446  1
  Li  Li80  1  0.63725965  0.54922186  0.20621446  1
  Li  Li81  1  0.36274035  0.45077814  0.20621446  1
  Li  Li82  1  0.86274035  0.04922186  0.79378554  1
  Li  Li83  1  0.13725965  0.95077814  0.79378554  1
  Li  Li84  1  0.95603793  0.34015660  0.75103969  1
  Li  Li85  1  0.04396207  0.65984340  0.75103969  1
  Li  Li86  1  0.54396207  0.84015660  0.24896031  1
  Li  Li87  1  0.45603793  0.15984340  0.24896031  1
  Li  Li88  1  0.04396207  0.65984340  0.24896031  1
  Li  Li89  1  0.95603793  0.34015660  0.24896031  1
  Li  Li90  1  0.45603793  0.15984340  0.75103969  1
  Li  Li91  1  0.54396207  0.84015660  0.75103969  1
  Li  Li92  1  0.39474708  0.01871649  0.46026357  1
  Li  Li93  1  0.60525292  0.98128351  0.46026357  1
  Li  Li94  1  0.10525292  0.51871649  0.53973643  1
  Li  Li95  1  0.89474708  0.48128351  0.53973643  1
  Li  Li96  1  0.60525292  0.98128351  0.53973643  1
  Li  Li97  1  0.39474708  0.01871649  0.53973643  1
  Li  Li98  1  0.89474708  0.48128351  0.46026357  1
  Li  Li99  1  0.10525292  0.51871649  0.46026357  1
  Li  Li100  1  0.05333103  0.39914228  0.26401235  1
  Li  Li101  1  0.94666897  0.60085772  0.26401235  1
  Li  Li102  1  0.44666897  0.89914228  0.73598765  1
  Li  Li103  1  0.55333103  0.10085772  0.73598765  1
  Li  Li104  1  0.94666897  0.60085772  0.73598765  1
  Li  Li105  1  0.05333103  0.39914228  0.73598765  1
  Li  Li106  1  0.55333103  0.10085772  0.26401235  1
  Li  Li107  1  0.44666897  0.89914228  0.26401235  1
  Li  Li108  1  0.60219086  0.89791121  0.92211833  1
  Li  Li109  1  0.39780914  0.10208879  0.92211833  1
  Li  Li110  1  0.89780914  0.39791121  0.07788167  1
  Li  Li111  1  0.10219086  0.60208879  0.07788167  1
  Li  Li112  1  0.39780914  0.10208879  0.07788167  1
  Li  Li113  1  0.60219086  0.89791121  0.07788167  1
  Li  Li114  1  0.10219086  0.60208879  0.92211833  1
  Li  Li115  1  0.89780914  0.39791121  0.92211833  1
  Li  Li116  1  0.91846271  0.78891847  0.76875706  1
  Li  Li117  1  0.08153729  0.21108153  0.76875706  1
  Li  Li118  1  0.58153729  0.28891847  0.23124294  1
  Li  Li119  1  0.41846271  0.71108153  0.23124294  1
  Li  Li120  1  0.08153729  0.21108153  0.23124294  1
  Li  Li121  1  0.91846271  0.78891847  0.23124294  1
  Li  Li122  1  0.41846271  0.71108153  0.76875706  1
  Li  Li123  1  0.58153729  0.28891847  0.76875706  1
  Li  Li124  1  0.00000000  0.50000000  0.37720240  1
  Li  Li125  1  0.50000000  0.00000000  0.62279760  1
  Li  Li126  1  0.00000000  0.50000000  0.62279760  1
  Li  Li127  1  0.50000000  0.00000000  0.37720240  1
  Li  Li128  1  0.48743502  0.84265888  0.10140620  1
  Li  Li129  1  0.51256498  0.15734112  0.10140620  1
  Li  Li130  1  0.01256498  0.34265888  0.89859380  1
  Li  Li131  1  0.98743502  0.65734112  0.89859380  1
  Li  Li132  1  0.51256498  0.15734112  0.89859380  1
  Li  Li133  1  0.48743502  0.84265888  0.89859380  1
  Li  Li134  1  0.98743502  0.65734112  0.10140620  1
  Li  Li135  1  0.01256498  0.34265888  0.10140620  1
