# generated using pymatgen
data_Li3Y2P3Se2
_symmetry_space_group_name_H-M   'P 1'
_cell_length_a   6.10547132
_cell_length_b   6.46233041
_cell_length_c   7.59227939
_cell_angle_alpha   92.81444217
_cell_angle_beta   96.12926994
_cell_angle_gamma   101.30449563
_symmetry_Int_Tables_number   1
_chemical_formula_structural   Li3Y2P3Se2
_chemical_formula_sum   'Li3 Y2 P3 Se2'
_cell_volume   291.31251976
_cell_formula_units_Z   1
loop_
 _symmetry_equiv_pos_site_id
 _symmetry_equiv_pos_as_xyz
  1  'x, y, z'
loop_
 _atom_site_type_symbol
 _atom_site_label
 _atom_site_symmetry_multiplicity
 _atom_site_fract_x
 _atom_site_fract_y
 _atom_site_fract_z
 _atom_site_occupancy
  Se  Se0  1  0.12500000  0.00000000  0.25000000  1
  Se  Se1  1  0.00000000  0.00000000  0.00000000  1
  P  P2  1  0.37500000  0.00000000  0.25000000  1
  P  P3  1  0.25000000  0.25000000  0.25000000  1
  P  P4  1  0.00000000  0.25000000  0.12500000  1
  Li  Li5  1  0.22571136  0.92217351  0.93311197  1
  Li  Li6  1  0.55204141  0.59968283  0.54863613  1
  Li  Li7  1  0.34347492  0.06119324  0.99561752  1
  Y  Y8  1  0.74129912  0.68480811  0.51290632  1
  Y  Y9  1  0.52396587  0.66995804  0.32763185  1
