# generated using pymatgen
data_Li2Si4Te3F12
_symmetry_space_group_name_H-M   'P 1'
_cell_length_a   9.98039333
_cell_length_b   9.98039333
_cell_length_c   14.39088325
_cell_angle_alpha   90.00000000
_cell_angle_beta   90.00000000
_cell_angle_gamma   120.00000000
_symmetry_Int_Tables_number   1
_chemical_formula_structural   Li2Si4Te3F12
_chemical_formula_sum   'Li8 Si16 Te12 F48'
_cell_volume   1241.40473033
_cell_formula_units_Z   4
loop_
 _symmetry_equiv_pos_site_id
 _symmetry_equiv_pos_as_xyz
  1  'x, y, z'
loop_
 _atom_site_type_symbol
 _atom_site_label
 _atom_site_symmetry_multiplicity
 _atom_site_fract_x
 _atom_site_fract_y
 _atom_site_fract_z
 _atom_site_occupancy
  F  F0  1  0.31140643  0.24467694  0.99641549  1
  F  F1  1  -0.24467694  0.06672949  0.99641549  1
  F  F2  1  -0.06672949  -0.31140643  0.99641549  1
  F  F3  1  -0.31140643  -0.24467694  1.49641549  1
  F  F4  1  0.24467694  -0.06672949  1.49641549  1
  F  F5  1  0.06672949  0.31140643  1.49641549  1
  F  F6  1  0.24467694  0.31140643  -0.99641549  1
  F  F7  1  0.06672949  -0.24467694  -0.99641549  1
  F  F8  1  -0.31140643  -0.06672949  -0.99641549  1
  F  F9  1  -0.24467694  -0.31140643  -0.49641549  1
  F  F10  1  -0.06672949  0.24467694  -0.49641549  1
  F  F11  1  0.31140643  0.06672949  -0.49641549  1
  F  F12  1  -0.31140643  -0.24467694  -0.99641549  1
  F  F13  1  0.24467694  -0.06672949  -0.99641549  1
  F  F14  1  0.06672949  0.31140643  -0.99641549  1
  F  F15  1  0.31140643  0.24467694  -0.49641549  1
  F  F16  1  -0.24467694  0.06672949  -0.49641549  1
  F  F17  1  -0.06672949  -0.31140643  -0.49641549  1
  F  F18  1  -0.24467694  -0.31140643  0.99641549  1
  F  F19  1  -0.06672949  0.24467694  0.99641549  1
  F  F20  1  0.31140643  0.06672949  0.99641549  1
  F  F21  1  0.24467694  0.31140643  1.49641549  1
  F  F22  1  0.06672949  -0.24467694  1.49641549  1
  F  F23  1  -0.31140643  -0.06672949  1.49641549  1
  F  F24  1  0.50000000  0.00000000  0.00000000  1
  F  F25  1  0.00000000  0.50000000  0.00000000  1
  F  F26  1  0.50000000  0.50000000  0.00000000  1
  F  F27  1  0.50000000  0.00000000  0.50000000  1
  F  F28  1  0.00000000  0.50000000  0.50000000  1
  F  F29  1  0.50000000  0.50000000  0.50000000  1
  F  F30  1  0.28206750  0.56413499  0.25000000  1
  F  F31  1  0.43586501  0.71793250  0.25000000  1
  F  F32  1  0.28206750  0.71793250  0.25000000  1
  F  F33  1  0.71793250  0.43586501  0.75000000  1
  F  F34  1  0.56413499  0.28206750  0.75000000  1
  F  F35  1  0.71793250  0.28206750  0.75000000  1
  F  F36  1  0.71358527  0.42717054  0.58942648  1
  F  F37  1  0.57282946  0.28641473  0.58942648  1
  F  F38  1  0.71358527  0.28641473  0.58942648  1
  F  F39  1  0.28641473  0.57282946  0.08942648  1
  F  F40  1  0.42717054  0.71358527  0.08942648  1
  F  F41  1  0.28641473  0.71358527  0.08942648  1
  F  F42  1  0.42717054  0.71358527  0.41057352  1
  F  F43  1  0.28641473  0.57282946  0.41057352  1
  F  F44  1  0.28641473  0.71358527  0.41057352  1
  F  F45  1  0.57282946  0.28641473  0.91057352  1
  F  F46  1  0.71358527  0.42717054  0.91057352  1
  F  F47  1  0.71358527  0.28641473  0.91057352  1
  Li  Li48  1  0.88067919  0.76135838  0.25000000  1
  Li  Li49  1  0.23864162  0.11932081  0.25000000  1
  Li  Li50  1  0.88067919  0.11932081  0.25000000  1
  Li  Li51  1  0.11932081  0.23864162  0.75000000  1
  Li  Li52  1  0.76135838  0.88067919  0.75000000  1
  Li  Li53  1  0.11932081  0.88067919  0.75000000  1
  Li  Li54  1  0.00000000  0.00000000  0.25000000  1
  Li  Li55  1  0.00000000  0.00000000  0.75000000  1
  Si  Si56  1  0.00000000  0.00000000  0.44365047  1
  Si  Si57  1  0.00000000  0.00000000  0.94365047  1
  Si  Si58  1  0.00000000  0.00000000  0.55634953  1
  Si  Si59  1  0.00000000  0.00000000  0.05634953  1
  Si  Si60  1  0.16292497  0.00000000  0.00000000  1
  Si  Si61  1  0.00000000  0.16292497  0.00000000  1
  Si  Si62  1  0.83707503  0.83707503  -0.00000000  1
  Si  Si63  1  0.83707503  0.00000000  0.50000000  1
  Si  Si64  1  0.00000000  0.83707503  0.50000000  1
  Si  Si65  1  0.16292497  0.16292497  0.50000000  1
  Si  Si66  1  0.83707503  0.00000000  -0.00000000  1
  Si  Si67  1  0.00000000  0.83707503  -0.00000000  1
  Si  Si68  1  0.16292497  0.16292497  0.00000000  1
  Si  Si69  1  0.16292497  0.00000000  0.50000000  1
  Si  Si70  1  0.00000000  0.16292497  0.50000000  1
  Si  Si71  1  0.83707503  0.83707503  0.50000000  1
  Te  Te72  1  0.45484420  0.90968839  0.94242691  1
  Te  Te73  1  0.09031161  0.54515580  0.94242691  1
  Te  Te74  1  0.45484420  0.54515580  0.94242691  1
  Te  Te75  1  0.54515580  0.09031161  0.44242691  1
  Te  Te76  1  0.90968839  0.45484420  0.44242691  1
  Te  Te77  1  0.54515580  0.45484420  0.44242691  1
  Te  Te78  1  0.90968839  0.45484420  0.05757309  1
  Te  Te79  1  0.54515580  0.09031161  0.05757309  1
  Te  Te80  1  0.54515580  0.45484420  0.05757309  1
  Te  Te81  1  0.09031161  0.54515580  0.55757309  1
  Te  Te82  1  0.45484420  0.90968839  0.55757309  1
  Te  Te83  1  0.45484420  0.54515580  0.55757309  1
