# generated using pymatgen
data_Li2F
_symmetry_space_group_name_H-M   'P 1'
_cell_length_a   3.11141890
_cell_length_b   3.15666524
_cell_length_c   5.62942716
_cell_angle_alpha   105.49965661
_cell_angle_beta   108.66677593
_cell_angle_gamma   115.27131786
_symmetry_Int_Tables_number   1
_chemical_formula_structural   Li2F
_chemical_formula_sum   'Li2 F1'
_cell_volume   41.77533353
_cell_formula_units_Z   1
loop_
 _symmetry_equiv_pos_site_id
 _symmetry_equiv_pos_as_xyz
  1  'x, y, z'
loop_
 _atom_site_type_symbol
 _atom_site_label
 _atom_site_symmetry_multiplicity
 _atom_site_fract_x
 _atom_site_fract_y
 _atom_site_fract_z
 _atom_site_occupancy
  F  F0  1  0.00000000  0.00000000  0.00000000  1
  Li  Li1  1  0.50000000  0.50000000  0.50000000  1
  Li  Li2  1  0.50000000  0.50000000  0.00000000  1
