# generated using pymatgen
data_LiF
_symmetry_space_group_name_H-M   'P 1'
_cell_length_a   10.66738025
_cell_length_b   10.66738025
_cell_length_c   13.96715190
_cell_angle_alpha   90.00000000
_cell_angle_beta   90.00000000
_cell_angle_gamma   120.00000000
_symmetry_Int_Tables_number   1
_chemical_formula_structural   LiF
_chemical_formula_sum   'Li51 F51'
_cell_volume   1376.42971600
_cell_formula_units_Z   51
loop_
 _symmetry_equiv_pos_site_id
 _symmetry_equiv_pos_as_xyz
  1  'x, y, z'
loop_
 _atom_site_type_symbol
 _atom_site_label
 _atom_site_symmetry_multiplicity
 _atom_site_fract_x
 _atom_site_fract_y
 _atom_site_fract_z
 _atom_site_occupancy
  F  F0  1  0.86192023  0.90476589  0.94290913  1
  F  F1  1  0.09523411  0.95715433  0.94290913  1
  F  F2  1  0.04284567  0.13807977  0.94290913  1
  F  F3  1  0.09523411  0.13807977  0.05709087  1
  F  F4  1  0.04284567  0.90476589  0.05709087  1
  F  F5  1  0.86192023  0.95715433  0.05709087  1
  F  F6  1  0.33333333  0.66666667  -0.00000000  1
  F  F7  1  0.66666667  0.33333333  -0.00000000  1
  F  F8  1  0.66666667  0.33333333  0.50000000  1
  F  F9  1  0.61905948  0.02597395  0.83155642  1
  F  F10  1  0.97402605  0.59308552  0.83155642  1
  F  F11  1  0.40691448  0.38094052  0.83155642  1
  F  F12  1  0.97402605  0.38094052  0.16844358  1
  F  F13  1  0.40691448  0.02597395  0.16844358  1
  F  F14  1  0.61905948  0.59308552  0.16844358  1
  F  F15  1  0.67018031  0.69297924  0.89618955  1
  F  F16  1  0.30702076  0.97720107  0.89618955  1
  F  F17  1  0.02279893  0.32981969  0.89618955  1
  F  F18  1  0.30702076  0.32981969  0.10381045  1
  F  F19  1  0.02279893  0.69297924  0.10381045  1
  F  F20  1  0.67018031  0.97720107  0.10381045  1
  F  F21  1  0.03841622  0.22348745  0.73162786  1
  F  F22  1  0.77651255  0.81492877  0.73162786  1
  F  F23  1  0.18507123  0.96158378  0.73162786  1
  F  F24  1  0.77651255  0.96158378  0.26837214  1
  F  F25  1  0.18507123  0.22348745  0.26837214  1
  F  F26  1  0.03841622  0.81492877  0.26837214  1
  F  F27  1  0.66402161  0.94508125  0.15488870  1
  F  F28  1  0.05491875  0.71894036  0.15488870  1
  F  F29  1  0.28105964  0.33597839  0.15488870  1
  F  F30  1  0.05491875  0.33597839  0.84511130  1
  F  F31  1  0.28105964  0.94508125  0.84511130  1
  F  F32  1  0.66402161  0.71894036  0.84511130  1
  F  F33  1  0.46583274  0.48168579  0.70396648  1
  F  F34  1  0.51831421  0.98414695  0.70396648  1
  F  F35  1  0.01585305  0.53416726  0.70396648  1
  F  F36  1  0.51831421  0.53416726  0.29603352  1
  F  F37  1  0.01585305  0.48168579  0.29603352  1
  F  F38  1  0.46583274  0.98414695  0.29603352  1
  F  F39  1  0.59161528  0.19501760  0.67114403  1
  F  F40  1  0.80498240  0.39659768  0.67114403  1
  F  F41  1  0.60340232  0.40838472  0.67114403  1
  F  F42  1  0.80498240  0.40838472  0.32885597  1
  F  F43  1  0.60340232  0.19501760  0.32885597  1
  F  F44  1  0.59161528  0.39659768  0.32885597  1
  F  F45  1  0.80527947  0.19472053  0.00000000  1
  F  F46  1  0.80527947  0.61055894  0.00000000  1
  F  F47  1  0.38944106  0.19472053  0.00000000  1
  F  F48  1  0.09960118  0.90039882  0.50000000  1
  F  F49  1  0.09960118  0.19920237  0.50000000  1
  F  F50  1  0.80079763  0.90039882  0.50000000  1
  Li  Li51  1  0.91099284  0.08900716  -0.00000000  1
  Li  Li52  1  0.91099284  0.82198568  -0.00000000  1
  Li  Li53  1  0.17801432  0.08900716  0.00000000  1
  Li  Li54  1  0.13967476  0.83233257  0.21766042  1
  Li  Li55  1  -0.83233257  -0.69265781  0.21766042  1
  Li  Li56  1  0.69265781  -0.13967476  0.21766042  1
  Li  Li57  1  -0.83233257  -0.13967476  -0.21766042  1
  Li  Li58  1  0.69265781  0.83233257  -0.21766042  1
  Li  Li59  1  0.13967476  -0.69265781  -0.21766042  1
  Li  Li60  1  0.34861013  0.88527066  0.79846664  1
  Li  Li61  1  0.11472934  0.46333947  0.79846664  1
  Li  Li62  1  0.53666053  0.65138987  0.79846664  1
  Li  Li63  1  0.11472934  0.65138987  0.20153336  1
  Li  Li64  1  0.53666053  0.88527066  0.20153336  1
  Li  Li65  1  0.34861013  0.46333947  0.20153336  1
  Li  Li66  1  0.12471582  0.03751815  0.66669037  1
  Li  Li67  1  0.96248185  0.08719767  0.66669037  1
  Li  Li68  1  0.91280233  0.87528418  0.66669037  1
  Li  Li69  1  0.96248185  0.87528418  0.33330963  1
  Li  Li70  1  0.91280233  0.03751815  0.33330963  1
  Li  Li71  1  0.12471582  0.08719767  0.33330963  1
  Li  Li72  1  0.33333333  0.66666667  0.50000000  1
  Li  Li73  1  0.66666667  0.33333333  0.24418390  1
  Li  Li74  1  0.66666667  0.33333333  0.75581610  1
  Li  Li75  1  0.69493211  0.42726879  0.40813611  1
  Li  Li76  1  0.57273121  0.26766332  0.40813611  1
  Li  Li77  1  0.73233668  0.30506789  0.40813611  1
  Li  Li78  1  0.57273121  0.30506789  0.59186389  1
  Li  Li79  1  0.73233668  0.42726879  0.59186389  1
  Li  Li80  1  0.69493211  0.26766332  0.59186389  1
  Li  Li81  1  0.95299038  0.46574476  0.36053260  1
  Li  Li82  1  0.53425524  0.48724562  0.36053260  1
  Li  Li83  1  0.51275438  0.04700962  0.36053260  1
  Li  Li84  1  0.53425524  0.04700962  0.63946740  1
  Li  Li85  1  0.51275438  0.46574476  0.63946740  1
  Li  Li86  1  0.95299038  0.48724562  0.63946740  1
  Li  Li87  1  0.98454565  0.81133167  0.87019076  1
  Li  Li88  1  0.18866833  0.17321398  0.87019076  1
  Li  Li89  1  0.82678602  0.01545435  0.87019076  1
  Li  Li90  1  0.18866833  0.01545435  0.12980924  1
  Li  Li91  1  0.82678602  0.81133167  0.12980924  1
  Li  Li92  1  0.98454565  0.17321398  0.12980924  1
  Li  Li93  1  0.65907168  0.10109208  0.75490542  1
  Li  Li94  1  0.89890792  0.55797960  0.75490542  1
  Li  Li95  1  0.44202040  0.34092832  0.75490542  1
  Li  Li96  1  0.89890792  0.34092832  0.24509458  1
  Li  Li97  1  0.44202040  0.10109208  0.24509458  1
  Li  Li98  1  0.65907168  0.55797960  0.24509458  1
  Li  Li99  1  0.00000000  0.00000000  0.00000000  1
  Li  Li100  1  0.66666667  0.33333333  0.89484815  1
  Li  Li101  1  0.66666667  0.33333333  0.10515185  1
