# generated using pymatgen
data_LiF
_symmetry_space_group_name_H-M   'P 1'
_cell_length_a   7.21274547
_cell_length_b   7.30409370
_cell_length_c   12.24569964
_cell_angle_alpha   90.00000000
_cell_angle_beta   90.00000000
_cell_angle_gamma   90.00000000
_symmetry_Int_Tables_number   1
_chemical_formula_structural   LiF
_chemical_formula_sum   'Li24 F24'
_cell_volume   645.13491344
_cell_formula_units_Z   24
loop_
 _symmetry_equiv_pos_site_id
 _symmetry_equiv_pos_as_xyz
  1  'x, y, z'
loop_
 _atom_site_type_symbol
 _atom_site_label
 _atom_site_symmetry_multiplicity
 _atom_site_fract_x
 _atom_site_fract_y
 _atom_site_fract_z
 _atom_site_occupancy
  F  F0  1  0.68949748  0.38551347  0.24580720  1
  F  F1  1  -0.18949748  -0.38551347  0.74580720  1
  F  F2  1  -0.68949748  0.88551347  -0.24580720  1
  F  F3  1  1.18949748  0.11448653  0.25419280  1
  F  F4  1  -0.68949748  -0.38551347  -0.24580720  1
  F  F5  1  1.18949748  0.38551347  0.25419280  1
  F  F6  1  0.68949748  0.11448653  0.24580720  1
  F  F7  1  -0.18949748  0.88551347  0.74580720  1
  F  F8  1  0.00000000  0.00000000  0.00000000  1
  F  F9  1  0.50000000  0.00000000  0.50000000  1
  F  F10  1  0.00000000  0.50000000  0.00000000  1
  F  F11  1  0.50000000  0.50000000  0.50000000  1
  F  F12  1  0.40957790  0.40111540  0.38885856  1
  F  F13  1  0.09042210  0.59888460  0.88885856  1
  F  F14  1  0.59042210  0.90111540  0.61114144  1
  F  F15  1  0.90957790  0.09888460  0.11114144  1
  F  F16  1  0.59042210  0.59888460  0.61114144  1
  F  F17  1  0.90957790  0.40111540  0.11114144  1
  F  F18  1  0.40957790  0.09888460  0.38885856  1
  F  F19  1  0.09042210  0.90111540  0.88885856  1
  F  F20  1  0.71566348  0.25000000  0.85618939  1
  F  F21  1  0.78433652  0.75000000  0.35618939  1
  F  F22  1  0.28433652  0.75000000  0.14381061  1
  F  F23  1  0.21566348  0.25000000  0.64381061  1
  Li  Li24  1  0.48513862  0.25000000  0.23614929  1
  Li  Li25  1  0.01486138  0.75000000  0.73614929  1
  Li  Li26  1  0.51486138  0.75000000  0.76385071  1
  Li  Li27  1  0.98513862  0.25000000  0.26385071  1
  Li  Li28  1  0.18390271  0.25000000  0.32034351  1
  Li  Li29  1  0.31609729  0.75000000  0.82034351  1
  Li  Li30  1  0.81609729  0.75000000  0.67965649  1
  Li  Li31  1  0.68390271  0.25000000  0.17965649  1
  Li  Li32  1  0.00000000  0.00000000  0.50000000  1
  Li  Li33  1  0.50000000  0.00000000  0.00000000  1
  Li  Li34  1  0.00000000  0.50000000  0.50000000  1
  Li  Li35  1  0.50000000  0.50000000  0.00000000  1
  Li  Li36  1  0.41368432  0.25000000  0.49076498  1
  Li  Li37  1  0.08631568  0.75000000  0.99076498  1
  Li  Li38  1  0.58631568  0.75000000  0.50923502  1
  Li  Li39  1  0.91368432  0.25000000  0.00923502  1
  Li  Li40  1  0.87899985  0.25000000  0.89392260  1
  Li  Li41  1  0.62100015  0.75000000  0.39392260  1
  Li  Li42  1  0.12100015  0.75000000  0.10607740  1
  Li  Li43  1  0.37899985  0.25000000  0.60607740  1
  Li  Li44  1  0.23214998  0.25000000  0.08432484  1
  Li  Li45  1  0.26785002  0.75000000  0.58432484  1
  Li  Li46  1  0.76785002  0.75000000  0.91567516  1
  Li  Li47  1  0.73214998  0.25000000  0.41567516  1
