# generated using pymatgen
data_LiF
_symmetry_space_group_name_H-M   'P 1'
_cell_length_a   7.83659073
_cell_length_b   8.06871496
_cell_length_c   8.09256304
_cell_angle_alpha   90.00000000
_cell_angle_beta   90.00000000
_cell_angle_gamma   90.00000000
_symmetry_Int_Tables_number   1
_chemical_formula_structural   LiF
_chemical_formula_sum   'Li24 F24'
_cell_volume   511.70260873
_cell_formula_units_Z   24
loop_
 _symmetry_equiv_pos_site_id
 _symmetry_equiv_pos_as_xyz
  1  'x, y, z'
loop_
 _atom_site_type_symbol
 _atom_site_label
 _atom_site_symmetry_multiplicity
 _atom_site_fract_x
 _atom_site_fract_y
 _atom_site_fract_z
 _atom_site_occupancy
  F  F0  1  0.27328651  0.13920825  0.51462156  1
  F  F1  1  0.22671349  0.86079175  0.01462156  1
  F  F2  1  0.72671349  0.63920825  0.48537844  1
  F  F3  1  0.77328651  0.36079175  0.98537844  1
  F  F4  1  0.72671349  0.86079175  0.48537844  1
  F  F5  1  0.77328651  0.13920825  0.98537844  1
  F  F6  1  0.27328651  0.36079175  0.51462156  1
  F  F7  1  0.22671349  0.63920825  0.01462156  1
  F  F8  1  0.01298965  0.25000000  0.94656997  1
  F  F9  1  0.48701035  0.75000000  0.44656997  1
  F  F10  1  0.98701035  0.75000000  0.05343003  1
  F  F11  1  0.51298965  0.25000000  0.55343003  1
  F  F12  1  0.67198200  0.41955142  0.85972929  1
  F  F13  1  0.82801800  0.58044858  0.35972929  1
  F  F14  1  0.32801800  0.91955142  0.14027071  1
  F  F15  1  0.17198200  0.08044858  0.64027071  1
  F  F16  1  0.32801800  0.58044858  0.14027071  1
  F  F17  1  0.17198200  0.41955142  0.64027071  1
  F  F18  1  0.67198200  0.08044858  0.85972929  1
  F  F19  1  0.82801800  0.91955142  0.35972929  1
  F  F20  1  0.61517424  0.25000000  0.59896633  1
  F  F21  1  0.88482576  0.75000000  0.09896633  1
  F  F22  1  0.38482576  0.75000000  0.40103367  1
  F  F23  1  0.11517424  0.25000000  0.90103367  1
  Li  Li24  1  0.78296984  0.04409690  0.69302086  1
  Li  Li25  1  -0.28296984  -0.04409690  1.19302086  1
  Li  Li26  1  -0.78296984  0.54409690  -0.69302086  1
  Li  Li27  1  1.28296984  0.45590310  -0.19302086  1
  Li  Li28  1  -0.78296984  -0.04409690  -0.69302086  1
  Li  Li29  1  1.28296984  0.04409690  -0.19302086  1
  Li  Li30  1  0.78296984  0.45590310  0.69302086  1
  Li  Li31  1  -0.28296984  0.54409690  1.19302086  1
  Li  Li32  1  0.00000000  0.00000000  0.00000000  1
  Li  Li33  1  0.50000000  0.00000000  0.50000000  1
  Li  Li34  1  0.00000000  0.50000000  0.00000000  1
  Li  Li35  1  0.50000000  0.50000000  0.50000000  1
  Li  Li36  1  0.50517430  0.25000000  0.84539657  1
  Li  Li37  1  0.99482570  0.75000000  0.34539657  1
  Li  Li38  1  0.49482570  0.75000000  0.15460343  1
  Li  Li39  1  0.00517430  0.25000000  0.65460343  1
  Li  Li40  1  0.78055728  0.25000000  0.03935897  1
  Li  Li41  1  0.71944272  0.75000000  0.53935897  1
  Li  Li42  1  0.21944272  0.75000000  0.96064103  1
  Li  Li43  1  0.28055728  0.25000000  0.46064103  1
  Li  Li44  1  0.00000000  0.00000000  0.50000000  1
  Li  Li45  1  0.50000000  0.00000000  0.00000000  1
  Li  Li46  1  0.00000000  0.50000000  0.50000000  1
  Li  Li47  1  0.50000000  0.50000000  0.00000000  1
