# generated using pymatgen
data_Li2Y2Mo2P4Se
_symmetry_space_group_name_H-M   'P 1'
_cell_length_a   3.86396922
_cell_length_b   4.18200540
_cell_length_c   6.39142751
_cell_angle_alpha   95.49028692
_cell_angle_beta   102.66021308
_cell_angle_gamma   112.90174807
_symmetry_Int_Tables_number   1
_chemical_formula_structural   Li2Y2Mo2P4Se
_chemical_formula_sum   'Li2 Y2 Mo2 P4 Se1'
_cell_volume   90.92457458
_cell_formula_units_Z   1
loop_
 _symmetry_equiv_pos_site_id
 _symmetry_equiv_pos_as_xyz
  1  'x, y, z'
loop_
 _atom_site_type_symbol
 _atom_site_label
 _atom_site_symmetry_multiplicity
 _atom_site_fract_x
 _atom_site_fract_y
 _atom_site_fract_z
 _atom_site_occupancy
  P  P0  1  0.00000000  0.00000000  0.00000000  1
  P  P1  1  0.50000000  0.50000000  0.50000000  1
  P  P2  1  0.25000000  0.25000000  0.25000000  1
  P  P3  1  0.75000000  0.25000000  0.00000000  1
  Mo  Mo4  1  0.25000000  0.75000000  0.50000000  1
  Mo  Mo5  1  0.58718992  0.81502292  0.71963246  1
  Se  Se6  1  0.66071559  0.24242407  0.21576503  1
  Li  Li7  1  0.33610501  0.34222627  0.81816682  1
  Li  Li8  1  0.05304150  0.24119901  0.45447464  1
  Y  Y9  1  0.06210712  0.31217412  0.65640207  1
  Y  Y10  1  0.43354361  0.66039143  0.49354278  1
