# generated using pymatgen
data_Li2Si4Te3F12
_symmetry_space_group_name_H-M   'P 1'
_cell_length_a   10.69670533
_cell_length_b   11.79176038
_cell_length_c   9.33862479
_cell_angle_alpha   90.00000000
_cell_angle_beta   90.00000000
_cell_angle_gamma   90.00000000
_symmetry_Int_Tables_number   1
_chemical_formula_structural   Li2Si4Te3F12
_chemical_formula_sum   'Li8 Si16 Te12 F48'
_cell_volume   1177.90863125
_cell_formula_units_Z   4
loop_
 _symmetry_equiv_pos_site_id
 _symmetry_equiv_pos_as_xyz
  1  'x, y, z'
loop_
 _atom_site_type_symbol
 _atom_site_label
 _atom_site_symmetry_multiplicity
 _atom_site_fract_x
 _atom_site_fract_y
 _atom_site_fract_z
 _atom_site_occupancy
  F  F0  1  0.25801170  0.69169598  0.39033041  1
  F  F1  1  0.74198830  0.30830402  0.39033041  1
  F  F2  1  0.24198830  0.19169598  0.10966959  1
  F  F3  1  0.75801170  0.80830402  0.10966959  1
  F  F4  1  0.74198830  0.30830402  0.60966959  1
  F  F5  1  0.25801170  0.69169598  0.60966959  1
  F  F6  1  0.75801170  0.80830402  0.89033041  1
  F  F7  1  0.24198830  0.19169598  0.89033041  1
  F  F8  1  0.00724860  0.43093756  0.64401452  1
  F  F9  1  0.99275140  0.56906244  0.64401452  1
  F  F10  1  0.49275140  0.93093756  0.85598548  1
  F  F11  1  0.50724860  0.06906244  0.85598548  1
  F  F12  1  0.99275140  0.56906244  0.35598548  1
  F  F13  1  0.00724860  0.43093756  0.35598548  1
  F  F14  1  0.50724860  0.06906244  0.14401452  1
  F  F15  1  0.49275140  0.93093756  0.14401452  1
  F  F16  1  0.00000000  0.00000000  0.24882369  1
  F  F17  1  0.50000000  0.50000000  0.25117631  1
  F  F18  1  0.00000000  0.00000000  0.75117631  1
  F  F19  1  0.50000000  0.50000000  0.74882369  1
  F  F20  1  0.00000000  0.50000000  0.83803121  1
  F  F21  1  0.50000000  0.00000000  0.66196879  1
  F  F22  1  0.00000000  0.50000000  0.16196879  1
  F  F23  1  0.50000000  0.00000000  0.33803121  1
  F  F24  1  0.42356122  0.83256229  0.83704739  1
  F  F25  1  0.57643878  0.16743771  0.83704739  1
  F  F26  1  0.07643878  0.33256229  0.66295261  1
  F  F27  1  0.92356122  0.66743771  0.66295261  1
  F  F28  1  0.57643878  0.16743771  0.16295261  1
  F  F29  1  0.42356122  0.83256229  0.16295261  1
  F  F30  1  0.92356122  0.66743771  0.33704739  1
  F  F31  1  0.07643878  0.33256229  0.33704739  1
  F  F32  1  0.14875948  0.07614832  0.22369775  1
  F  F33  1  0.85124052  0.92385168  0.22369775  1
  F  F34  1  0.35124052  0.57614832  0.27630225  1
  F  F35  1  0.64875948  0.42385168  0.27630225  1
  F  F36  1  0.85124052  0.92385168  0.77630225  1
  F  F37  1  0.14875948  0.07614832  0.77630225  1
  F  F38  1  0.64875948  0.42385168  0.72369775  1
  F  F39  1  0.35124052  0.57614832  0.72369775  1
  F  F40  1  0.62079505  0.77073043  0.36309864  1
  F  F41  1  0.37920495  0.22926957  0.36309864  1
  F  F42  1  0.87920495  0.27073043  0.13690136  1
  F  F43  1  0.12079505  0.72926957  0.13690136  1
  F  F44  1  0.37920495  0.22926957  0.63690136  1
  F  F45  1  0.62079505  0.77073043  0.63690136  1
  F  F46  1  0.12079505  0.72926957  0.86309864  1
  F  F47  1  0.87920495  0.27073043  0.86309864  1
  Li  Li48  1  0.23707824  0.86874126  0.40792045  1
  Li  Li49  1  0.76292176  0.13125874  0.40792045  1
  Li  Li50  1  0.26292176  0.36874126  0.09207955  1
  Li  Li51  1  0.73707824  0.63125874  0.09207955  1
  Li  Li52  1  0.76292176  0.13125874  0.59207955  1
  Li  Li53  1  0.23707824  0.86874126  0.59207955  1
  Li  Li54  1  0.73707824  0.63125874  0.90792045  1
  Li  Li55  1  0.26292176  0.36874126  0.90792045  1
  Si  Si56  1  0.00000000  0.50000000  0.50000000  1
  Si  Si57  1  0.50000000  0.00000000  0.00000000  1
  Si  Si58  1  0.00000000  0.00000000  0.50000000  1
  Si  Si59  1  0.50000000  0.50000000  0.00000000  1
  Si  Si60  1  0.00000000  0.00000000  0.00000000  1
  Si  Si61  1  0.50000000  0.50000000  0.50000000  1
  Si  Si62  1  0.00000000  0.50000000  0.00000000  1
  Si  Si63  1  0.50000000  0.00000000  0.50000000  1
  Si  Si64  1  0.88167407  0.15209750  0.69809696  1
  Si  Si65  1  -0.88167407  -0.15209750  0.69809696  1
  Si  Si66  1  -0.38167407  0.65209750  -0.19809696  1
  Si  Si67  1  1.38167407  0.34790250  -0.19809696  1
  Si  Si68  1  -0.88167407  -0.15209750  -0.69809696  1
  Si  Si69  1  0.88167407  0.15209750  -0.69809696  1
  Si  Si70  1  1.38167407  0.34790250  1.19809696  1
  Si  Si71  1  -0.38167407  0.65209750  1.19809696  1
  Te  Te72  1  0.03704560  0.77003051  0.12379060  1
  Te  Te73  1  0.96295440  0.22996949  0.12379060  1
  Te  Te74  1  0.46295440  0.27003051  0.37620940  1
  Te  Te75  1  0.53704560  0.72996949  0.37620940  1
  Te  Te76  1  0.96295440  0.22996949  0.87620940  1
  Te  Te77  1  0.03704560  0.77003051  0.87620940  1
  Te  Te78  1  0.53704560  0.72996949  0.62379060  1
  Te  Te79  1  0.46295440  0.27003051  0.62379060  1
  Te  Te80  1  0.84541108  0.25487316  -0.00000000  1
  Te  Te81  1  0.15458892  0.74512684  0.00000000  1
  Te  Te82  1  0.65458892  0.75487316  0.50000000  1
  Te  Te83  1  0.34541108  0.24512684  0.50000000  1
