# generated using pymatgen
data_Li2YAsP3
_symmetry_space_group_name_H-M   'P 1'
_cell_length_a   4.72662329
_cell_length_b   4.81725179
_cell_length_c   7.09433786
_cell_angle_alpha   96.03687687
_cell_angle_beta   102.80500673
_cell_angle_gamma   112.58545355
_symmetry_Int_Tables_number   1
_chemical_formula_structural   Li2YAsP3
_chemical_formula_sum   'Li2 Y1 As1 P3'
_cell_volume   142.15037907
_cell_formula_units_Z   1
loop_
 _symmetry_equiv_pos_site_id
 _symmetry_equiv_pos_as_xyz
  1  'x, y, z'
loop_
 _atom_site_type_symbol
 _atom_site_label
 _atom_site_symmetry_multiplicity
 _atom_site_fract_x
 _atom_site_fract_y
 _atom_site_fract_z
 _atom_site_occupancy
  P  P0  1  0.00000000  0.00000000  0.00000000  1
  P  P1  1  0.33300000  0.66700000  0.25000000  1
  P  P2  1  0.66700000  0.33300000  0.50000000  1
  As  As3  1  0.00000000  0.00000000  0.75000000  1
  Li  Li4  1  0.27089069  0.61650193  0.61966272  1
  Li  Li5  1  0.39676289  0.47804085  0.98023775  1
  Y  Y6  1  0.27790763  0.75457847  0.35392332  1
