# generated using pymatgen
data_Li3(PSe)2
_symmetry_space_group_name_H-M   'P 1'
_cell_length_a   5.18382842
_cell_length_b   5.30931266
_cell_length_c   7.10628087
_cell_angle_alpha   94.37053668
_cell_angle_beta   99.51812027
_cell_angle_gamma   107.55470880
_symmetry_Int_Tables_number   1
_chemical_formula_structural   Li3(PSe)2
_chemical_formula_sum   'Li3 P2 Se2'
_cell_volume   182.24679246
_cell_formula_units_Z   1
loop_
 _symmetry_equiv_pos_site_id
 _symmetry_equiv_pos_as_xyz
  1  'x, y, z'
loop_
 _atom_site_type_symbol
 _atom_site_label
 _atom_site_symmetry_multiplicity
 _atom_site_fract_x
 _atom_site_fract_y
 _atom_site_fract_z
 _atom_site_occupancy
  P  P0  1  0.12500000  0.00000000  0.25000000  1
  P  P1  1  0.00000000  0.00000000  0.00000000  1
  Se  Se2  1  0.37500000  0.00000000  0.25000000  1
  Se  Se3  1  0.25000000  0.25000000  0.25000000  1
  Li  Li4  1  0.00000000  0.25000000  0.12500000  1
  Li  Li5  1  0.05813990  0.83638455  0.28561016  1
  Li  Li6  1  0.73353211  0.53219831  0.74034498  1
