# generated using pymatgen
data_LiF
_symmetry_space_group_name_H-M   'P 1'
_cell_length_a   11.13495598
_cell_length_b   11.13495598
_cell_length_c   20.84179463
_cell_angle_alpha   90.00000000
_cell_angle_beta   90.00000000
_cell_angle_gamma   120.00000000
_symmetry_Int_Tables_number   1
_chemical_formula_structural   LiF
_chemical_formula_sum   'Li58 F58'
_cell_volume   2237.91070185
_cell_formula_units_Z   58
loop_
 _symmetry_equiv_pos_site_id
 _symmetry_equiv_pos_as_xyz
  1  'x, y, z'
loop_
 _atom_site_type_symbol
 _atom_site_label
 _atom_site_symmetry_multiplicity
 _atom_site_fract_x
 _atom_site_fract_y
 _atom_site_fract_z
 _atom_site_occupancy
  F  F0  1  0.20350789  0.73601666  0.90725209  1
  F  F1  1  0.26398334  0.46749123  0.90725209  1
  F  F2  1  0.53250877  0.79649211  0.90725209  1
  F  F3  1  0.26398334  0.79649211  0.09274791  1
  F  F4  1  0.53250877  0.73601666  0.09274791  1
  F  F5  1  0.20350789  0.46749123  0.09274791  1
  F  F6  1  0.57436584  0.42563416  0.50000000  1
  F  F7  1  0.57436584  0.14873169  0.50000000  1
  F  F8  1  0.85126831  0.42563416  0.50000000  1
  F  F9  1  0.59512444  0.75238403  0.80161466  1
  F  F10  1  0.24761597  0.84274041  0.80161466  1
  F  F11  1  0.15725959  0.40487556  0.80161466  1
  F  F12  1  0.24761597  0.40487556  0.19838534  1
  F  F13  1  0.15725959  0.75238403  0.19838534  1
  F  F14  1  0.59512444  0.84274041  0.19838534  1
  F  F15  1  0.78177574  0.21822426  0.00000000  1
  F  F16  1  0.78177574  0.56355147  0.00000000  1
  F  F17  1  0.43644853  0.21822426  0.00000000  1
  F  F18  1  0.32500959  0.29226325  0.97836078  1
  F  F19  1  0.70773675  0.03274634  0.97836078  1
  F  F20  1  0.96725366  0.67499041  0.97836078  1
  F  F21  1  0.70773675  0.67499041  0.02163922  1
  F  F22  1  0.96725366  0.29226325  0.02163922  1
  F  F23  1  0.32500959  0.03274634  0.02163922  1
  F  F24  1  0.93706587  0.06293413  0.00000000  1
  F  F25  1  0.93706587  0.87413173  0.00000000  1
  F  F26  1  0.12586827  0.06293413  0.00000000  1
  F  F27  1  0.30900944  0.54840449  0.38519774  1
  F  F28  1  0.45159551  0.76060495  0.38519774  1
  F  F29  1  0.23939505  0.69099056  0.38519774  1
  F  F30  1  0.45159551  0.69099056  0.61480226  1
  F  F31  1  0.23939505  0.54840449  0.61480226  1
  F  F32  1  0.30900944  0.76060495  0.61480226  1
  F  F33  1  0.05640682  0.94359318  -0.00000000  1
  F  F34  1  0.05640682  0.11281363  0.00000000  1
  F  F35  1  0.88718637  0.94359318  0.00000000  1
  F  F36  1  0.33333333  0.66666667  0.00000000  1
  F  F37  1  0.12595188  0.25646054  0.24208421  1
  F  F38  1  0.74353946  0.86949133  0.24208421  1
  F  F39  1  0.13050867  0.87404812  0.24208421  1
  F  F40  1  0.74353946  0.87404812  0.75791579  1
  F  F41  1  0.13050867  0.25646054  0.75791579  1
  F  F42  1  0.12595188  0.86949133  0.75791579  1
  F  F43  1  0.33333333  0.66666667  0.18930618  1
  F  F44  1  0.33333333  0.66666667  0.81069382  1
  F  F45  1  0.56334976  0.59477720  0.77561153  1
  F  F46  1  0.40522280  0.96857256  0.77561153  1
  F  F47  1  0.03142744  0.43665024  0.77561153  1
  F  F48  1  0.40522280  0.43665024  0.22438847  1
  F  F49  1  0.03142744  0.59477720  0.22438847  1
  F  F50  1  0.56334976  0.96857256  0.22438847  1
  F  F51  1  0.44195535  0.32875001  0.06091597  1
  F  F52  1  0.67124999  0.11320534  0.06091597  1
  F  F53  1  0.88679466  0.55804465  0.06091597  1
  F  F54  1  0.67124999  0.55804465  0.93908403  1
  F  F55  1  0.88679466  0.32875001  0.93908403  1
  F  F56  1  0.44195535  0.11320534  0.93908403  1
  F  F57  1  0.66666667  0.33333333  0.00000000  1
  Li  Li58  1  0.05626655  0.94373345  0.50000000  1
  Li  Li59  1  0.05626655  0.11253309  0.50000000  1
  Li  Li60  1  0.88746691  0.94373345  0.50000000  1
  Li  Li61  1  0.66666667  0.33333333  0.72943229  1
  Li  Li62  1  0.66666667  0.33333333  0.27056771  1
  Li  Li63  1  0.33333333  0.66666667  0.74532567  1
  Li  Li64  1  0.33333333  0.66666667  0.25467433  1
  Li  Li65  1  0.71315084  0.13031884  0.14954687  1
  Li  Li66  1  -0.13031884  0.58283200  0.14954687  1
  Li  Li67  1  -0.58283200  -0.71315084  0.14954687  1
  Li  Li68  1  -0.13031884  -0.71315084  -0.14954687  1
  Li  Li69  1  -0.58283200  0.13031884  -0.14954687  1
  Li  Li70  1  0.71315084  0.58283200  -0.14954687  1
  Li  Li71  1  0.34385946  0.02439059  0.71680126  1
  Li  Li72  1  0.97560941  0.31946886  0.71680126  1
  Li  Li73  1  0.68053114  0.65614054  0.71680126  1
  Li  Li74  1  0.97560941  0.65614054  0.28319874  1
  Li  Li75  1  0.68053114  0.02439059  0.28319874  1
  Li  Li76  1  0.34385946  0.31946886  0.28319874  1
  Li  Li77  1  0.07020167  0.61099480  0.59352304  1
  Li  Li78  1  0.38900520  0.45920686  0.59352304  1
  Li  Li79  1  0.54079314  0.92979833  0.59352304  1
  Li  Li80  1  0.38900520  0.92979833  0.40647696  1
  Li  Li81  1  0.54079314  0.61099480  0.40647696  1
  Li  Li82  1  0.07020167  0.45920686  0.40647696  1
  Li  Li83  1  0.59553563  0.07401462  0.59168911  1
  Li  Li84  1  0.92598538  0.52152102  0.59168911  1
  Li  Li85  1  0.47847898  0.40446437  0.59168911  1
  Li  Li86  1  0.92598538  0.40446437  0.40831089  1
  Li  Li87  1  0.47847898  0.07401462  0.40831089  1
  Li  Li88  1  0.59553563  0.52152102  0.40831089  1
  Li  Li89  1  0.24796194  0.73191163  0.73440339  1
  Li  Li90  1  0.26808837  0.51605030  0.73440339  1
  Li  Li91  1  0.48394970  0.75203806  0.73440339  1
  Li  Li92  1  0.26808837  0.75203806  0.26559661  1
  Li  Li93  1  0.48394970  0.73191163  0.26559661  1
  Li  Li94  1  0.24796194  0.51605030  0.26559661  1
  Li  Li95  1  0.34882438  0.27912279  0.72948723  1
  Li  Li96  1  0.72087721  0.06970159  0.72948723  1
  Li  Li97  1  0.93029841  0.65117562  0.72948723  1
  Li  Li98  1  0.72087721  0.65117562  0.27051277  1
  Li  Li99  1  0.93029841  0.27912279  0.27051277  1
  Li  Li100  1  0.34882438  0.06970159  0.27051277  1
  Li  Li101  1  0.74459263  0.71488542  0.96533245  1
  Li  Li102  1  0.28511458  0.02970721  0.96533245  1
  Li  Li103  1  0.97029279  0.25540737  0.96533245  1
  Li  Li104  1  0.28511458  0.25540737  0.03466755  1
  Li  Li105  1  0.97029279  0.71488542  0.03466755  1
  Li  Li106  1  0.74459263  0.02970721  0.03466755  1
  Li  Li107  1  0.01726797  0.57822746  0.83910137  1
  Li  Li108  1  0.42177254  0.43904051  0.83910137  1
  Li  Li109  1  0.56095949  0.98273203  0.83910137  1
  Li  Li110  1  0.42177254  0.98273203  0.16089863  1
  Li  Li111  1  0.56095949  0.57822746  0.16089863  1
  Li  Li112  1  0.01726797  0.43904051  0.16089863  1
  Li  Li113  1  0.33333333  0.66666667  0.35550057  1
  Li  Li114  1  0.33333333  0.66666667  0.64449943  1
  Li  Li115  1  0.00000000  0.00000000  0.00000000  1
