# generated using pymatgen
data_Li2Si4Te3F12
_symmetry_space_group_name_H-M   'P 1'
_cell_length_a   11.70361447
_cell_length_b   11.70361447
_cell_length_c   9.49522799
_cell_angle_alpha   90.00000000
_cell_angle_beta   90.00000000
_cell_angle_gamma   90.00000000
_symmetry_Int_Tables_number   1
_chemical_formula_structural   Li2Si4Te3F12
_chemical_formula_sum   'Li8 Si16 Te12 F48'
_cell_volume   1300.60497530
_cell_formula_units_Z   4
loop_
 _symmetry_equiv_pos_site_id
 _symmetry_equiv_pos_as_xyz
  1  'x, y, z'
loop_
 _atom_site_type_symbol
 _atom_site_label
 _atom_site_symmetry_multiplicity
 _atom_site_fract_x
 _atom_site_fract_y
 _atom_site_fract_z
 _atom_site_occupancy
  F  F0  1  0.46324837  0.10750832  0.33098912  1
  F  F1  1  0.03675163  -0.10750832  0.83098912  1
  F  F2  1  0.14249168  1.21324837  0.58098912  1
  F  F3  1  0.35750832  -0.21324837  1.08098912  1
  F  F4  1  0.03675163  0.10750832  0.16901088  1
  F  F5  1  0.46324837  -0.10750832  -0.33098912  1
  F  F6  1  0.35750832  1.21324837  -0.08098912  1
  F  F7  1  0.14249168  -0.21324837  0.41901088  1
  F  F8  1  -0.46324837  -0.10750832  -0.33098912  1
  F  F9  1  0.96324837  0.10750832  0.16901088  1
  F  F10  1  0.85750832  -0.21324837  0.41901088  1
  F  F11  1  0.64249168  1.21324837  -0.08098912  1
  F  F12  1  0.96324837  -0.10750832  0.83098912  1
  F  F13  1  -0.46324837  0.10750832  0.33098912  1
  F  F14  1  0.64249168  -0.21324837  1.08098912  1
  F  F15  1  0.85750832  1.21324837  0.58098912  1
  F  F16  1  0.96324837  0.60750832  0.83098912  1
  F  F17  1  0.53675163  0.39249168  1.33098912  1
  F  F18  1  0.64249168  1.71324837  1.08098912  1
  F  F19  1  0.85750832  0.28675163  1.58098912  1
  F  F20  1  0.53675163  0.60750832  0.66901088  1
  F  F21  1  0.96324837  0.39249168  0.16901088  1
  F  F22  1  0.85750832  1.71324837  0.41901088  1
  F  F23  1  0.64249168  0.28675163  0.91901088  1
  F  F24  1  0.03675163  0.39249168  0.16901088  1
  F  F25  1  1.46324837  0.60750832  0.66901088  1
  F  F26  1  1.35750832  0.28675163  0.91901088  1
  F  F27  1  1.14249168  1.71324837  0.41901088  1
  F  F28  1  1.46324837  0.39249168  1.33098912  1
  F  F29  1  0.03675163  0.60750832  0.83098912  1
  F  F30  1  1.14249168  0.28675163  1.58098912  1
  F  F31  1  1.35750832  1.71324837  1.08098912  1
  F  F32  1  0.62608433  -0.00000000  0.00000000  1
  F  F33  1  0.87391567  0.00000000  0.50000000  1
  F  F34  1  0.25000000  0.37608433  0.25000000  1
  F  F35  1  0.25000000  0.62391567  0.75000000  1
  F  F36  1  0.37391567  0.00000000  0.00000000  1
  F  F37  1  0.12608433  0.00000000  0.50000000  1
  F  F38  1  0.75000000  0.62391567  0.75000000  1
  F  F39  1  0.75000000  0.37608433  0.25000000  1
  F  F40  1  0.12608433  0.50000000  0.50000000  1
  F  F41  1  0.37391567  0.50000000  0.00000000  1
  F  F42  1  0.75000000  0.87608433  0.75000000  1
  F  F43  1  0.75000000  0.12391567  0.25000000  1
  F  F44  1  0.87391567  0.50000000  0.50000000  1
  F  F45  1  0.62608433  0.50000000  0.00000000  1
  F  F46  1  0.25000000  0.12391567  0.25000000  1
  F  F47  1  0.25000000  0.87608433  0.75000000  1
  Li  Li48  1  0.00000000  0.00000000  0.00000000  1
  Li  Li49  1  0.50000000  0.00000000  0.50000000  1
  Li  Li50  1  0.25000000  0.75000000  0.25000000  1
  Li  Li51  1  0.25000000  0.25000000  0.75000000  1
  Li  Li52  1  0.50000000  0.50000000  0.50000000  1
  Li  Li53  1  0.00000000  0.50000000  0.00000000  1
  Li  Li54  1  0.75000000  0.25000000  0.75000000  1
  Li  Li55  1  0.75000000  0.75000000  0.25000000  1
  Si  Si56  1  0.00000000  0.25000000  0.70451404  1
  Si  Si57  1  0.00000000  0.75000000  0.95451404  1
  Si  Si58  1  0.50000000  0.25000000  0.79548596  1
  Si  Si59  1  0.50000000  0.75000000  0.54548596  1
  Si  Si60  1  0.50000000  0.75000000  0.20451404  1
  Si  Si61  1  0.50000000  0.25000000  0.45451404  1
  Si  Si62  1  0.00000000  0.75000000  0.29548596  1
  Si  Si63  1  0.00000000  0.25000000  0.04548596  1
  Si  Si64  1  0.00000000  0.25000000  0.52024955  1
  Si  Si65  1  0.00000000  0.75000000  0.77024955  1
  Si  Si66  1  0.50000000  0.25000000  0.97975045  1
  Si  Si67  1  0.50000000  0.75000000  0.72975045  1
  Si  Si68  1  0.50000000  0.75000000  0.02024955  1
  Si  Si69  1  0.50000000  0.25000000  0.27024955  1
  Si  Si70  1  0.00000000  0.75000000  0.47975045  1
  Si  Si71  1  0.00000000  0.25000000  0.22975045  1
  Te  Te72  1  0.00000000  0.00000000  0.50000000  1
  Te  Te73  1  0.50000000  0.00000000  0.00000000  1
  Te  Te74  1  0.25000000  0.75000000  0.75000000  1
  Te  Te75  1  0.25000000  0.25000000  0.25000000  1
  Te  Te76  1  0.50000000  0.50000000  0.00000000  1
  Te  Te77  1  0.00000000  0.50000000  0.50000000  1
  Te  Te78  1  0.75000000  0.25000000  0.25000000  1
  Te  Te79  1  0.75000000  0.75000000  0.75000000  1
  Te  Te80  1  0.00000000  0.25000000  0.37500000  1
  Te  Te81  1  0.00000000  0.75000000  0.62500000  1
  Te  Te82  1  0.50000000  0.75000000  0.87500000  1
  Te  Te83  1  0.50000000  0.25000000  0.12500000  1
