# generated using pymatgen
data_Li2Y2Te4P3Se
_symmetry_space_group_name_H-M   'P 1'
_cell_length_a   5.30904824
_cell_length_b   5.50849888
_cell_length_c   7.35675881
_cell_angle_alpha   94.24196355
_cell_angle_beta   99.23811472
_cell_angle_gamma   107.03828164
_symmetry_Int_Tables_number   1
_chemical_formula_structural   Li2Y2Te4P3Se
_chemical_formula_sum   'Li2 Y2 Te4 P3 Se1'
_cell_volume   201.36045174
_cell_formula_units_Z   1
loop_
 _symmetry_equiv_pos_site_id
 _symmetry_equiv_pos_as_xyz
  1  'x, y, z'
loop_
 _atom_site_type_symbol
 _atom_site_label
 _atom_site_symmetry_multiplicity
 _atom_site_fract_x
 _atom_site_fract_y
 _atom_site_fract_z
 _atom_site_occupancy
  Se  Se0  1  0.12500000  0.00000000  0.25000000  1
  Te  Te1  1  0.00000000  0.00000000  0.00000000  1
  Te  Te2  1  0.37500000  0.00000000  0.25000000  1
  Te  Te3  1  0.25000000  0.25000000  0.25000000  1
  Te  Te4  1  0.00000000  0.25000000  0.12500000  1
  Y  Y5  1  0.73277785  0.44731583  0.44392690  1
  Y  Y6  1  0.95842606  0.51675366  0.67570942  1
  P  P7  1  0.24946025  0.30174686  0.39955624  1
  P  P8  1  0.90239238  0.49678284  0.72168049  1
  P  P9  1  0.98382868  0.52353876  0.45763327  1
  Li  Li10  1  0.15486821  0.94472282  0.55182584  1
  Li  Li11  1  0.14241189  0.58354151  0.31602494  1
