# generated using pymatgen
data_LiF
_symmetry_space_group_name_H-M   'P 1'
_cell_length_a   6.06765257
_cell_length_b   7.33337245
_cell_length_c   9.80926715
_cell_angle_alpha   90.00000000
_cell_angle_beta   90.00000000
_cell_angle_gamma   90.00000000
_symmetry_Int_Tables_number   1
_chemical_formula_structural   LiF
_chemical_formula_sum   'Li24 F24'
_cell_volume   436.47664488
_cell_formula_units_Z   24
loop_
 _symmetry_equiv_pos_site_id
 _symmetry_equiv_pos_as_xyz
  1  'x, y, z'
loop_
 _atom_site_type_symbol
 _atom_site_label
 _atom_site_symmetry_multiplicity
 _atom_site_fract_x
 _atom_site_fract_y
 _atom_site_fract_z
 _atom_site_occupancy
  F  F0  1  0.66655203  0.89396194  0.54975271  1
  F  F1  1  0.83344797  0.10603806  0.04975271  1
  F  F2  1  0.33344797  0.39396194  0.45024729  1
  F  F3  1  0.16655203  0.60603806  0.95024729  1
  F  F4  1  0.33344797  0.10603806  0.45024729  1
  F  F5  1  0.16655203  0.89396194  0.95024729  1
  F  F6  1  0.66655203  0.60603806  0.54975271  1
  F  F7  1  0.83344797  0.39396194  0.04975271  1
  F  F8  1  0.83085696  0.15825296  0.38332878  1
  F  F9  1  0.66914304  0.84174704  0.88332878  1
  F  F10  1  0.16914304  0.65825296  0.61667122  1
  F  F11  1  0.33085696  0.34174704  0.11667122  1
  F  F12  1  0.16914304  0.84174704  0.61667122  1
  F  F13  1  0.33085696  0.15825296  0.11667122  1
  F  F14  1  0.83085696  0.34174704  0.38332878  1
  F  F15  1  0.66914304  0.65825296  0.88332878  1
  F  F16  1  0.69455086  0.25000000  0.52611599  1
  F  F17  1  0.80544914  0.75000000  0.02611599  1
  F  F18  1  0.30544914  0.75000000  0.47388401  1
  F  F19  1  0.19455086  0.25000000  0.97388401  1
  F  F20  1  0.57771895  0.25000000  0.65486966  1
  F  F21  1  0.92228105  0.75000000  0.15486966  1
  F  F22  1  0.42228105  0.75000000  0.34513034  1
  F  F23  1  0.07771895  0.25000000  0.84513034  1
  Li  Li24  1  0.75486406  0.54588117  0.72632116  1
  Li  Li25  1  -0.25486406  -0.54588117  1.22632116  1
  Li  Li26  1  -0.75486406  1.04588117  -0.72632116  1
  Li  Li27  1  1.25486406  -0.04588117  -0.22632116  1
  Li  Li28  1  -0.75486406  -0.54588117  -0.72632116  1
  Li  Li29  1  1.25486406  0.54588117  -0.22632116  1
  Li  Li30  1  0.75486406  -0.04588117  0.72632116  1
  Li  Li31  1  -0.25486406  1.04588117  1.22632116  1
  Li  Li32  1  0.39710545  0.25000000  0.26448689  1
  Li  Li33  1  0.10289455  0.75000000  0.76448689  1
  Li  Li34  1  0.60289455  0.75000000  0.73551311  1
  Li  Li35  1  0.89710545  0.25000000  0.23551311  1
  Li  Li36  1  0.00000000  0.00000000  0.50000000  1
  Li  Li37  1  0.50000000  0.00000000  0.00000000  1
  Li  Li38  1  0.00000000  0.50000000  0.50000000  1
  Li  Li39  1  0.50000000  0.50000000  0.00000000  1
  Li  Li40  1  0.17280725  0.62306160  0.46466333  1
  Li  Li41  1  0.32719275  0.37693840  0.96466333  1
  Li  Li42  1  0.82719275  0.12306160  0.53533667  1
  Li  Li43  1  0.67280725  0.87693840  0.03533667  1
  Li  Li44  1  0.82719275  0.37693840  0.53533667  1
  Li  Li45  1  0.67280725  0.62306160  0.03533667  1
  Li  Li46  1  0.17280725  0.87693840  0.46466333  1
  Li  Li47  1  0.32719275  0.12306160  0.96466333  1
