# generated using pymatgen
data_LiF
_symmetry_space_group_name_H-M   'P 1'
_cell_length_a   17.37213579
_cell_length_b   6.79154593
_cell_length_c   6.96991553
_cell_angle_alpha   90.00000000
_cell_angle_beta   90.00000000
_cell_angle_gamma   90.00000000
_symmetry_Int_Tables_number   1
_chemical_formula_structural   LiF
_chemical_formula_sum   'Li52 F52'
_cell_volume   822.33613144
_cell_formula_units_Z   52
loop_
 _symmetry_equiv_pos_site_id
 _symmetry_equiv_pos_as_xyz
  1  'x, y, z'
loop_
 _atom_site_type_symbol
 _atom_site_label
 _atom_site_symmetry_multiplicity
 _atom_site_fract_x
 _atom_site_fract_y
 _atom_site_fract_z
 _atom_site_occupancy
  F  F0  1  0.08441008  0.25000000  0.49087705  1
  F  F1  1  0.41558992  0.75000000  0.99087705  1
  F  F2  1  0.91558992  0.75000000  0.50912295  1
  F  F3  1  0.58441008  0.25000000  0.00912295  1
  F  F4  1  0.37114332  0.31469270  0.59668865  1
  F  F5  1  0.12885668  0.68530730  0.09668865  1
  F  F6  1  0.62885668  0.81469270  0.40331135  1
  F  F7  1  0.87114332  0.18530730  0.90331135  1
  F  F8  1  0.62885668  0.68530730  0.40331135  1
  F  F9  1  0.87114332  0.31469270  0.90331135  1
  F  F10  1  0.37114332  0.18530730  0.59668865  1
  F  F11  1  0.12885668  0.81469270  0.09668865  1
  F  F12  1  0.20259928  0.56672570  0.38280120  1
  F  F13  1  0.29740072  0.43327430  0.88280120  1
  F  F14  1  0.79740072  0.06672570  0.61719880  1
  F  F15  1  0.70259928  0.93327430  0.11719880  1
  F  F16  1  0.79740072  0.43327430  0.61719880  1
  F  F17  1  0.70259928  0.56672570  0.11719880  1
  F  F18  1  0.20259928  0.93327430  0.38280120  1
  F  F19  1  0.29740072  0.06672570  0.88280120  1
  F  F20  1  0.44231738  0.25000000  0.81037352  1
  F  F21  1  0.05768262  0.75000000  0.31037352  1
  F  F22  1  0.55768262  0.75000000  0.18962648  1
  F  F23  1  0.94231738  0.25000000  0.68962648  1
  F  F24  1  0.50287242  0.92864377  0.33982095  1
  F  F25  1  0.99712758  0.07135623  0.83982095  1
  F  F26  1  0.49712758  0.42864377  0.66017905  1
  F  F27  1  0.00287242  0.57135623  0.16017905  1
  F  F28  1  0.49712758  0.07135623  0.66017905  1
  F  F29  1  0.00287242  0.92864377  0.16017905  1
  F  F30  1  0.50287242  0.57135623  0.33982095  1
  F  F31  1  0.99712758  0.42864377  0.83982095  1
  F  F32  1  0.80414915  0.82303412  0.21929308  1
  F  F33  1  0.69585085  0.17696588  0.71929308  1
  F  F34  1  0.19585085  0.32303412  0.78070692  1
  F  F35  1  0.30414915  0.67696588  0.28070692  1
  F  F36  1  0.19585085  0.17696588  0.78070692  1
  F  F37  1  0.30414915  0.82303412  0.28070692  1
  F  F38  1  0.80414915  0.67696588  0.21929308  1
  F  F39  1  0.69585085  0.32303412  0.71929308  1
  F  F40  1  0.34849866  0.25000000  0.41935332  1
  F  F41  1  0.15150134  0.75000000  0.91935332  1
  F  F42  1  0.65150134  0.75000000  0.58064668  1
  F  F43  1  0.84849866  0.25000000  0.08064668  1
  F  F44  1  0.17479557  0.01551144  0.01796889  1
  F  F45  1  0.32520443  0.98448856  0.51796889  1
  F  F46  1  0.82520443  0.51551144  0.98203111  1
  F  F47  1  0.67479557  0.48448856  0.48203111  1
  F  F48  1  0.82520443  0.98448856  0.98203111  1
  F  F49  1  0.67479557  0.01551144  0.48203111  1
  F  F50  1  0.17479557  0.48448856  0.01796889  1
  F  F51  1  0.32520443  0.51551144  0.51796889  1
  Li  Li52  1  0.00000000  0.00000000  0.00000000  1
  Li  Li53  1  0.50000000  0.00000000  0.50000000  1
  Li  Li54  1  0.00000000  0.50000000  0.00000000  1
  Li  Li55  1  0.50000000  0.50000000  0.50000000  1
  Li  Li56  1  0.90525564  0.25000000  0.08768117  1
  Li  Li57  1  0.59474436  0.75000000  0.58768117  1
  Li  Li58  1  0.09474436  0.75000000  0.91231883  1
  Li  Li59  1  0.40525564  0.25000000  0.41231883  1
  Li  Li60  1  0.47168748  0.58778183  0.93191725  1
  Li  Li61  1  0.02831252  -0.58778183  1.43191725  1
  Li  Li62  1  -0.47168748  1.08778183  -0.93191725  1
  Li  Li63  1  0.97168748  -0.08778183  -0.43191725  1
  Li  Li64  1  -0.47168748  -0.58778183  -0.93191725  1
  Li  Li65  1  0.97168748  0.58778183  -0.43191725  1
  Li  Li66  1  0.47168748  -0.08778183  0.93191725  1
  Li  Li67  1  0.02831252  1.08778183  1.43191725  1
  Li  Li68  1  0.75647826  0.25000000  0.97925386  1
  Li  Li69  1  0.74352174  0.75000000  0.47925386  1
  Li  Li70  1  0.24352174  0.75000000  0.02074614  1
  Li  Li71  1  0.25647826  0.25000000  0.52074614  1
  Li  Li72  1  0.29197220  0.25000000  0.26450663  1
  Li  Li73  1  0.20802780  0.75000000  0.76450663  1
  Li  Li74  1  0.70802780  0.75000000  0.73549337  1
  Li  Li75  1  0.79197220  0.25000000  0.23549337  1
  Li  Li76  1  0.94316126  0.96375927  0.19586679  1
  Li  Li77  1  0.55683874  0.03624073  0.69586679  1
  Li  Li78  1  0.05683874  0.46375927  0.80413321  1
  Li  Li79  1  0.44316126  0.53624073  0.30413321  1
  Li  Li80  1  0.05683874  0.03624073  0.80413321  1
  Li  Li81  1  0.44316126  0.96375927  0.30413321  1
  Li  Li82  1  0.94316126  0.53624073  0.19586679  1
  Li  Li83  1  0.55683874  0.46375927  0.69586679  1
  Li  Li84  1  0.62633733  0.46926656  0.09580324  1
  Li  Li85  1  0.87366267  0.53073344  0.59580324  1
  Li  Li86  1  0.37366267  0.96926656  0.90419676  1
  Li  Li87  1  0.12633733  0.03073344  0.40419676  1
  Li  Li88  1  0.37366267  0.53073344  0.90419676  1
  Li  Li89  1  0.12633733  0.46926656  0.40419676  1
  Li  Li90  1  0.62633733  0.03073344  0.09580324  1
  Li  Li91  1  0.87366267  0.96926656  0.59580324  1
  Li  Li92  1  0.08853039  0.92059518  0.00530189  1
  Li  Li93  1  0.41146961  0.07940482  0.50530189  1
  Li  Li94  1  0.91146961  0.42059518  0.99469811  1
  Li  Li95  1  0.58853039  0.57940482  0.49469811  1
  Li  Li96  1  0.91146961  0.07940482  0.99469811  1
  Li  Li97  1  0.58853039  0.92059518  0.49469811  1
  Li  Li98  1  0.08853039  0.57940482  0.00530189  1
  Li  Li99  1  0.41146961  0.42059518  0.50530189  1
  Li  Li100  1  0.47904202  0.25000000  0.21744610  1
  Li  Li101  1  0.02095798  0.75000000  0.71744610  1
  Li  Li102  1  0.52095798  0.75000000  0.78255390  1
  Li  Li103  1  0.97904202  0.25000000  0.28255390  1
