# generated using pymatgen
data_LiY2Te4P3Se
_symmetry_space_group_name_H-M   'P 1'
_cell_length_a   5.33741823
_cell_length_b   5.40244287
_cell_length_c   7.27980980
_cell_angle_alpha   94.02375976
_cell_angle_beta   98.95527070
_cell_angle_gamma   106.39410559
_symmetry_Int_Tables_number   1
_chemical_formula_structural   LiY2Te4P3Se
_chemical_formula_sum   'Li1 Y2 Te4 P3 Se1'
_cell_volume   197.47747532
_cell_formula_units_Z   1
loop_
 _symmetry_equiv_pos_site_id
 _symmetry_equiv_pos_as_xyz
  1  'x, y, z'
loop_
 _atom_site_type_symbol
 _atom_site_label
 _atom_site_symmetry_multiplicity
 _atom_site_fract_x
 _atom_site_fract_y
 _atom_site_fract_z
 _atom_site_occupancy
  Se  Se0  1  0.12500000  0.00000000  0.25000000  1
  Te  Te1  1  0.00000000  0.00000000  0.00000000  1
  Te  Te2  1  0.37500000  0.00000000  0.25000000  1
  Te  Te3  1  0.25000000  0.25000000  0.25000000  1
  Te  Te4  1  0.00000000  0.25000000  0.12500000  1
  Y  Y5  1  0.23611127  0.75497812  0.21554245  1
  Y  Y6  1  0.02910368  0.26018720  0.24599677  1
  P  P7  1  0.92003992  0.78739637  0.29730964  1
  P  P8  1  0.87655216  0.56056385  0.69481627  1
  P  P9  1  0.84001956  0.57890741  0.81572825  1
  Li  Li10  1  0.91492116  0.85532545  0.66829480  1
