# generated using pymatgen
data_LiF
_symmetry_space_group_name_H-M   'P 1'
_cell_length_a   6.14907990
_cell_length_b   5.73480026
_cell_length_c   11.01184627
_cell_angle_alpha   90.00000000
_cell_angle_beta   90.00000000
_cell_angle_gamma   90.00000000
_symmetry_Int_Tables_number   1
_chemical_formula_structural   LiF
_chemical_formula_sum   'Li16 F16'
_cell_volume   388.31893920
_cell_formula_units_Z   16
loop_
 _symmetry_equiv_pos_site_id
 _symmetry_equiv_pos_as_xyz
  1  'x, y, z'
loop_
 _atom_site_type_symbol
 _atom_site_label
 _atom_site_symmetry_multiplicity
 _atom_site_fract_x
 _atom_site_fract_y
 _atom_site_fract_z
 _atom_site_occupancy
  F  F0  1  0.00000000  0.00000000  0.00000000  1
  F  F1  1  0.50000000  0.50000000  0.00000000  1
  F  F2  1  0.56856978  0.83757461  0.50000000  1
  F  F3  1  0.43143022  0.16242539  0.50000000  1
  F  F4  1  0.93143022  0.33757461  0.50000000  1
  F  F5  1  0.06856978  0.66242539  0.50000000  1
  F  F6  1  0.84064756  0.86950917  0.00000000  1
  F  F7  1  0.15935244  0.13049083  -0.00000000  1
  F  F8  1  0.65935244  0.36950917  -0.00000000  1
  F  F9  1  0.34064756  0.63049083  -0.00000000  1
  F  F10  1  0.25931171  0.49625060  0.50000000  1
  F  F11  1  0.74068829  0.50374940  0.50000000  1
  F  F12  1  0.24068829  0.99625060  0.50000000  1
  F  F13  1  0.75931171  0.00374940  0.50000000  1
  F  F14  1  0.00000000  0.50000000  0.50000000  1
  F  F15  1  0.50000000  0.00000000  0.50000000  1
  Li  Li16  1  0.82582811  0.64450511  0.19704882  1
  Li  Li17  1  -0.82582811  -0.64450511  0.19704882  1
  Li  Li18  1  -0.32582811  1.14450511  -0.19704882  1
  Li  Li19  1  1.32582811  -0.14450511  -0.19704882  1
  Li  Li20  1  -0.82582811  -0.64450511  -0.19704882  1
  Li  Li21  1  0.82582811  0.64450511  -0.19704882  1
  Li  Li22  1  1.32582811  -0.14450511  0.19704882  1
  Li  Li23  1  -0.32582811  1.14450511  0.19704882  1
  Li  Li24  1  0.74177027  0.12297678  0.44100795  1
  Li  Li25  1  0.25822973  0.87702322  0.44100795  1
  Li  Li26  1  0.75822973  0.62297678  0.55899205  1
  Li  Li27  1  0.24177027  0.37702322  0.55899205  1
  Li  Li28  1  0.25822973  0.87702322  0.55899205  1
  Li  Li29  1  0.74177027  0.12297678  0.55899205  1
  Li  Li30  1  0.24177027  0.37702322  0.44100795  1
  Li  Li31  1  0.75822973  0.62297678  0.44100795  1
