# generated using pymatgen
data_LiF
_symmetry_space_group_name_H-M   'P 1'
_cell_length_a   7.17139590
_cell_length_b   5.46906612
_cell_length_c   9.52757424
_cell_angle_alpha   90.00000000
_cell_angle_beta   90.00000000
_cell_angle_gamma   90.00000000
_symmetry_Int_Tables_number   1
_chemical_formula_structural   LiF
_chemical_formula_sum   'Li16 F16'
_cell_volume   373.67944894
_cell_formula_units_Z   16
loop_
 _symmetry_equiv_pos_site_id
 _symmetry_equiv_pos_as_xyz
  1  'x, y, z'
loop_
 _atom_site_type_symbol
 _atom_site_label
 _atom_site_symmetry_multiplicity
 _atom_site_fract_x
 _atom_site_fract_y
 _atom_site_fract_z
 _atom_site_occupancy
  F  F0  1  0.67954385  0.13101469  0.50000000  1
  F  F1  1  0.32045615  0.86898531  0.50000000  1
  F  F2  1  0.82045615  0.63101469  0.50000000  1
  F  F3  1  0.17954385  0.36898531  0.50000000  1
  F  F4  1  0.00000000  0.50000000  0.46973385  1
  F  F5  1  0.50000000  0.00000000  0.53026615  1
  F  F6  1  0.00000000  0.50000000  0.53026615  1
  F  F7  1  0.50000000  0.00000000  0.46973385  1
  F  F8  1  0.00000000  0.00000000  0.50000000  1
  F  F9  1  0.50000000  0.50000000  0.50000000  1
  F  F10  1  0.00000000  0.50000000  0.00000000  1
  F  F11  1  0.50000000  0.00000000  0.00000000  1
  F  F12  1  0.97729119  0.33860086  0.50000000  1
  F  F13  1  0.02270881  0.66139914  0.50000000  1
  F  F14  1  0.52270881  0.83860086  0.50000000  1
  F  F15  1  0.47729119  0.16139914  0.50000000  1
  Li  Li16  1  0.31928953  0.90210161  0.81170572  1
  Li  Li17  1  -0.31928953  -0.90210161  0.81170572  1
  Li  Li18  1  0.18071047  1.40210161  -0.81170572  1
  Li  Li19  1  0.81928953  -0.40210161  -0.81170572  1
  Li  Li20  1  -0.31928953  -0.90210161  -0.81170572  1
  Li  Li21  1  0.31928953  0.90210161  -0.81170572  1
  Li  Li22  1  0.81928953  -0.40210161  0.81170572  1
  Li  Li23  1  0.18071047  1.40210161  0.81170572  1
  Li  Li24  1  0.00000000  0.00000000  0.35561867  1
  Li  Li25  1  0.50000000  0.50000000  0.64438133  1
  Li  Li26  1  0.00000000  0.00000000  0.64438133  1
  Li  Li27  1  0.50000000  0.50000000  0.35561867  1
  Li  Li28  1  0.68485779  0.01368324  0.00000000  1
  Li  Li29  1  0.31514221  0.98631676  0.00000000  1
  Li  Li30  1  0.81514221  0.51368324  0.00000000  1
  Li  Li31  1  0.18485779  0.48631676  -0.00000000  1
