# generated using pymatgen
data_LiF
_symmetry_space_group_name_H-M   'P 1'
_cell_length_a   3.94272013
_cell_length_b   3.94272013
_cell_length_c   29.97756399
_cell_angle_alpha   90.00000000
_cell_angle_beta   90.00000000
_cell_angle_gamma   120.00000000
_symmetry_Int_Tables_number   1
_chemical_formula_structural   LiF
_chemical_formula_sum   'Li24 F24'
_cell_volume   403.56999568
_cell_formula_units_Z   24
loop_
 _symmetry_equiv_pos_site_id
 _symmetry_equiv_pos_as_xyz
  1  'x, y, z'
loop_
 _atom_site_type_symbol
 _atom_site_label
 _atom_site_symmetry_multiplicity
 _atom_site_fract_x
 _atom_site_fract_y
 _atom_site_fract_z
 _atom_site_occupancy
  F  F0  1  0.60897334  0.77667531  0.31030785  1
  F  F1  1  0.22332469  0.83229803  0.31030785  1
  F  F2  1  0.16770197  0.39102666  0.31030785  1
  F  F3  1  0.22332469  0.39102666  0.68969215  1
  F  F4  1  0.16770197  0.77667531  0.68969215  1
  F  F5  1  0.60897334  0.83229803  0.68969215  1
  F  F6  1  0.00000000  0.00000000  0.96392113  1
  F  F7  1  0.00000000  0.00000000  0.03607887  1
  F  F8  1  0.67961962  0.65890451  0.50983461  1
  F  F9  1  0.34109549  0.02071512  0.50983461  1
  F  F10  1  0.97928488  0.32038038  0.50983461  1
  F  F11  1  0.34109549  0.32038038  0.49016539  1
  F  F12  1  0.97928488  0.65890451  0.49016539  1
  F  F13  1  0.67961962  0.02071512  0.49016539  1
  F  F14  1  0.17522456  0.82477544  0.50000000  1
  F  F15  1  0.17522456  0.35044912  0.50000000  1
  F  F16  1  0.64955088  0.82477544  0.50000000  1
  F  F17  1  0.00000000  0.00000000  0.00000000  1
  F  F18  1  0.81600413  0.35728712  0.12710740  1
  F  F19  1  0.64271288  0.45871701  0.12710740  1
  F  F20  1  0.54128299  0.18399587  0.12710740  1
  F  F21  1  0.64271288  0.18399587  0.87289260  1
  F  F22  1  0.54128299  0.35728712  0.87289260  1
  F  F23  1  0.81600413  0.45871701  0.87289260  1
  Li  Li24  1  0.36005462  0.28241763  0.08136002  1
  Li  Li25  1  -0.28241763  0.07763699  0.08136002  1
  Li  Li26  1  -0.07763699  -0.36005462  0.08136002  1
  Li  Li27  1  -0.28241763  -0.36005462  -0.08136002  1
  Li  Li28  1  -0.07763699  0.28241763  -0.08136002  1
  Li  Li29  1  0.36005462  0.07763699  -0.08136002  1
  Li  Li30  1  0.33333333  0.66666667  0.18488940  1
  Li  Li31  1  0.33333333  0.66666667  0.81511060  1
  Li  Li32  1  0.66666667  0.33333333  0.50000000  1
  Li  Li33  1  0.33333333  0.66666667  0.31535579  1
  Li  Li34  1  0.33333333  0.66666667  0.68464421  1
  Li  Li35  1  0.48287483  0.56472938  0.60241378  1
  Li  Li36  1  0.43527062  0.91814545  0.60241378  1
  Li  Li37  1  0.08185455  0.51712517  0.60241378  1
  Li  Li38  1  0.43527062  0.51712517  0.39758622  1
  Li  Li39  1  0.08185455  0.56472938  0.39758622  1
  Li  Li40  1  0.48287483  0.91814545  0.39758622  1
  Li  Li41  1  0.66666667  0.33333333  0.68369866  1
  Li  Li42  1  0.66666667  0.33333333  0.31630134  1
  Li  Li43  1  0.66666667  0.33333333  -0.00000000  1
  Li  Li44  1  0.00000000  0.00000000  0.63009450  1
  Li  Li45  1  0.00000000  0.00000000  0.36990550  1
  Li  Li46  1  0.00000000  0.00000000  0.78445420  1
  Li  Li47  1  0.00000000  0.00000000  0.21554580  1
