# generated using pymatgen
data_LiY2Mo(As2P)2
_symmetry_space_group_name_H-M   'P 1'
_cell_length_a   5.62976808
_cell_length_b   5.73448471
_cell_length_c   7.13400902
_cell_angle_alpha   93.21490458
_cell_angle_beta   97.26057900
_cell_angle_gamma   103.22594525
_symmetry_Int_Tables_number   1
_chemical_formula_structural   LiY2Mo(As2P)2
_chemical_formula_sum   'Li1 Y2 Mo1 As4 P2'
_cell_volume   221.54315624
_cell_formula_units_Z   1
loop_
 _symmetry_equiv_pos_site_id
 _symmetry_equiv_pos_as_xyz
  1  'x, y, z'
loop_
 _atom_site_type_symbol
 _atom_site_label
 _atom_site_symmetry_multiplicity
 _atom_site_fract_x
 _atom_site_fract_y
 _atom_site_fract_z
 _atom_site_occupancy
  P  P0  1  0.12500000  0.00000000  0.25000000  1
  P  P1  1  0.00000000  0.00000000  0.00000000  1
  Mo  Mo2  1  0.37500000  0.00000000  0.25000000  1
  As  As3  1  0.25000000  0.25000000  0.25000000  1
  As  As4  1  0.00000000  0.25000000  0.12500000  1
  As  As5  1  0.20972583  0.84468356  0.88029776  1
  As  As6  1  0.01998989  0.52670260  0.07149041  1
  Li  Li7  1  0.58287769  0.02128559  0.07314640  1
  Y  Y8  1  0.27283448  0.95711311  0.60148647  1
  Y  Y9  1  0.79980100  0.49757236  0.47235524  1
