# generated using pymatgen
data_Li2Si4Te3F12
_symmetry_space_group_name_H-M   'P 1'
_cell_length_a   6.10891242
_cell_length_b   6.10891242
_cell_length_c   41.80252111
_cell_angle_alpha   90.00000000
_cell_angle_beta   90.00000000
_cell_angle_gamma   90.00000000
_symmetry_Int_Tables_number   1
_chemical_formula_structural   Li2Si4Te3F12
_chemical_formula_sum   'Li8 Si16 Te12 F48'
_cell_volume   1560.02038149
_cell_formula_units_Z   4
loop_
 _symmetry_equiv_pos_site_id
 _symmetry_equiv_pos_as_xyz
  1  'x, y, z'
loop_
 _atom_site_type_symbol
 _atom_site_label
 _atom_site_symmetry_multiplicity
 _atom_site_fract_x
 _atom_site_fract_y
 _atom_site_fract_z
 _atom_site_occupancy
  F  F0  1  0.00000000  0.99437137  0.23392512  1
  F  F1  1  0.50000000  -0.99437137  0.73392512  1
  F  F2  1  -0.74437137  0.75000000  0.48392512  1
  F  F3  1  1.24437137  0.25000000  0.98392512  1
  F  F4  1  0.50000000  0.99437137  0.26607488  1
  F  F5  1  0.00000000  -0.99437137  -0.23392512  1
  F  F6  1  1.24437137  0.75000000  0.01607488  1
  F  F7  1  -0.74437137  0.25000000  0.51607488  1
  F  F8  1  0.50000000  1.49437137  0.73392512  1
  F  F9  1  1.00000000  -0.49437137  1.23392512  1
  F  F10  1  -0.24437137  1.25000000  0.98392512  1
  F  F11  1  1.74437137  0.75000000  1.48392512  1
  F  F12  1  1.00000000  1.49437137  0.76607488  1
  F  F13  1  0.50000000  -0.49437137  0.26607488  1
  F  F14  1  1.74437137  1.25000000  0.51607488  1
  F  F15  1  -0.24437137  0.75000000  1.01607488  1
  F  F16  1  0.00000000  0.00000000  0.50000000  1
  F  F17  1  0.50000000  0.00000000  0.00000000  1
  F  F18  1  0.25000000  0.75000000  0.75000000  1
  F  F19  1  0.25000000  0.25000000  0.25000000  1
  F  F20  1  0.50000000  0.50000000  0.00000000  1
  F  F21  1  0.00000000  0.50000000  0.50000000  1
  F  F22  1  0.75000000  0.25000000  0.25000000  1
  F  F23  1  0.75000000  0.75000000  0.75000000  1
  F  F24  1  0.16101669  0.41101669  0.87500000  1
  F  F25  1  0.33898331  0.58898331  0.37500000  1
  F  F26  1  0.83898331  0.91101669  0.12500000  1
  F  F27  1  0.66101669  0.08898331  0.62500000  1
  F  F28  1  0.83898331  0.58898331  0.12500000  1
  F  F29  1  0.66101669  0.41101669  0.62500000  1
  F  F30  1  0.16101669  0.08898331  0.87500000  1
  F  F31  1  0.33898331  0.91101669  0.37500000  1
  F  F32  1  0.66101669  0.91101669  0.37500000  1
  F  F33  1  0.83898331  0.08898331  0.87500000  1
  F  F34  1  0.33898331  0.41101669  0.62500000  1
  F  F35  1  0.16101669  0.58898331  0.12500000  1
  F  F36  1  0.33898331  0.08898331  0.62500000  1
  F  F37  1  0.16101669  0.91101669  0.12500000  1
  F  F38  1  0.66101669  0.58898331  0.37500000  1
  F  F39  1  0.83898331  0.41101669  0.87500000  1
  F  F40  1  0.00000000  0.25000000  0.80038511  1
  F  F41  1  0.00000000  0.75000000  0.05038511  1
  F  F42  1  0.50000000  0.25000000  0.69961489  1
  F  F43  1  0.50000000  0.75000000  0.44961489  1
  F  F44  1  0.50000000  0.75000000  0.30038511  1
  F  F45  1  0.50000000  0.25000000  0.55038511  1
  F  F46  1  0.00000000  0.75000000  0.19961489  1
  F  F47  1  0.00000000  0.25000000  0.94961489  1
  Li  Li48  1  0.00000000  0.25000000  0.21622573  1
  Li  Li49  1  0.00000000  0.75000000  0.46622573  1
  Li  Li50  1  0.50000000  0.25000000  0.28377427  1
  Li  Li51  1  0.50000000  0.75000000  0.03377427  1
  Li  Li52  1  0.50000000  0.75000000  0.71622573  1
  Li  Li53  1  0.50000000  0.25000000  0.96622573  1
  Li  Li54  1  0.00000000  0.75000000  0.78377427  1
  Li  Li55  1  0.00000000  0.25000000  0.53377427  1
  Si  Si56  1  0.00000000  0.00000000  0.00000000  1
  Si  Si57  1  0.50000000  0.00000000  0.50000000  1
  Si  Si58  1  0.25000000  0.75000000  0.25000000  1
  Si  Si59  1  0.25000000  0.25000000  0.75000000  1
  Si  Si60  1  0.50000000  0.50000000  0.50000000  1
  Si  Si61  1  0.00000000  0.50000000  0.00000000  1
  Si  Si62  1  0.75000000  0.25000000  0.75000000  1
  Si  Si63  1  0.75000000  0.75000000  0.25000000  1
  Si  Si64  1  0.00000000  0.25000000  0.98814780  1
  Si  Si65  1  0.00000000  0.75000000  0.23814780  1
  Si  Si66  1  0.50000000  0.25000000  0.51185220  1
  Si  Si67  1  0.50000000  0.75000000  0.26185220  1
  Si  Si68  1  0.50000000  0.75000000  0.48814780  1
  Si  Si69  1  0.50000000  0.25000000  0.73814780  1
  Si  Si70  1  0.00000000  0.75000000  0.01185220  1
  Si  Si71  1  0.00000000  0.25000000  0.76185220  1
  Te  Te72  1  0.00000000  0.25000000  0.37500000  1
  Te  Te73  1  0.00000000  0.75000000  0.62500000  1
  Te  Te74  1  0.50000000  0.75000000  0.87500000  1
  Te  Te75  1  0.50000000  0.25000000  0.12500000  1
  Te  Te76  1  0.00000000  0.25000000  0.90484338  1
  Te  Te77  1  0.00000000  0.75000000  0.15484338  1
  Te  Te78  1  0.50000000  0.25000000  0.59515662  1
  Te  Te79  1  0.50000000  0.75000000  0.34515662  1
  Te  Te80  1  0.50000000  0.75000000  0.40484338  1
  Te  Te81  1  0.50000000  0.25000000  0.65484338  1
  Te  Te82  1  0.00000000  0.75000000  0.09515662  1
  Te  Te83  1  0.00000000  0.25000000  0.84515662  1
