# generated using pymatgen
data_LiF
_symmetry_space_group_name_H-M   'P 1'
_cell_length_a   14.07669409
_cell_length_b   7.61131518
_cell_length_c   7.42844170
_cell_angle_alpha   90.00000000
_cell_angle_beta   90.00000000
_cell_angle_gamma   90.00000000
_symmetry_Int_Tables_number   1
_chemical_formula_structural   LiF
_chemical_formula_sum   'Li24 F24'
_cell_volume   795.89925462
_cell_formula_units_Z   24
loop_
 _symmetry_equiv_pos_site_id
 _symmetry_equiv_pos_as_xyz
  1  'x, y, z'
loop_
 _atom_site_type_symbol
 _atom_site_label
 _atom_site_symmetry_multiplicity
 _atom_site_fract_x
 _atom_site_fract_y
 _atom_site_fract_z
 _atom_site_occupancy
  F  F0  1  0.00000000  0.00000000  0.50000000  1
  F  F1  1  0.50000000  0.00000000  0.00000000  1
  F  F2  1  0.00000000  0.50000000  0.50000000  1
  F  F3  1  0.50000000  0.50000000  0.00000000  1
  F  F4  1  0.95249121  0.95721675  0.13566114  1
  F  F5  1  0.54750879  0.04278325  0.63566114  1
  F  F6  1  0.04750879  0.45721675  0.86433886  1
  F  F7  1  0.45249121  0.54278325  0.36433886  1
  F  F8  1  0.04750879  0.04278325  0.86433886  1
  F  F9  1  0.45249121  0.95721675  0.36433886  1
  F  F10  1  0.95249121  0.54278325  0.13566114  1
  F  F11  1  0.54750879  0.45721675  0.63566114  1
  F  F12  1  0.69229179  0.25000000  0.00725612  1
  F  F13  1  0.80770821  0.75000000  0.50725612  1
  F  F14  1  0.30770821  0.75000000  0.99274388  1
  F  F15  1  0.19229179  0.25000000  0.49274388  1
  F  F16  1  0.46692027  0.86431249  0.75214863  1
  F  F17  1  0.03307973  0.13568751  0.25214863  1
  F  F18  1  0.53307973  0.36431249  0.24785137  1
  F  F19  1  0.96692027  0.63568751  0.74785137  1
  F  F20  1  0.53307973  0.13568751  0.24785137  1
  F  F21  1  0.96692027  0.86431249  0.74785137  1
  F  F22  1  0.46692027  0.63568751  0.75214863  1
  F  F23  1  0.03307973  0.36431249  0.25214863  1
  Li  Li24  1  0.00000000  0.00000000  0.00000000  1
  Li  Li25  1  0.50000000  0.00000000  0.50000000  1
  Li  Li26  1  0.00000000  0.50000000  0.00000000  1
  Li  Li27  1  0.50000000  0.50000000  0.50000000  1
  Li  Li28  1  0.76515158  0.99859525  0.83424219  1
  Li  Li29  1  -0.26515158  -0.99859525  1.33424219  1
  Li  Li30  1  -0.76515158  1.49859525  -0.83424219  1
  Li  Li31  1  1.26515158  -0.49859525  -0.33424219  1
  Li  Li32  1  -0.76515158  -0.99859525  -0.83424219  1
  Li  Li33  1  1.26515158  0.99859525  -0.33424219  1
  Li  Li34  1  0.76515158  -0.49859525  0.83424219  1
  Li  Li35  1  -0.26515158  1.49859525  1.33424219  1
  Li  Li36  1  0.12715123  0.98242809  0.88527632  1
  Li  Li37  1  0.37284877  0.01757191  0.38527632  1
  Li  Li38  1  0.87284877  0.48242809  0.11472368  1
  Li  Li39  1  0.62715123  0.51757191  0.61472368  1
  Li  Li40  1  0.87284877  0.01757191  0.11472368  1
  Li  Li41  1  0.62715123  0.98242809  0.61472368  1
  Li  Li42  1  0.12715123  0.51757191  0.88527632  1
  Li  Li43  1  0.37284877  0.48242809  0.38527632  1
  Li  Li44  1  0.60232891  0.25000000  0.77650263  1
  Li  Li45  1  0.89767109  0.75000000  0.27650263  1
  Li  Li46  1  0.39767109  0.75000000  0.22349737  1
  Li  Li47  1  0.10232891  0.25000000  0.72349737  1
