# generated using pymatgen
data_LiF
_symmetry_space_group_name_H-M   'P 1'
_cell_length_a   10.16243541
_cell_length_b   10.16243541
_cell_length_c   13.73796923
_cell_angle_alpha   90.00000000
_cell_angle_beta   90.00000000
_cell_angle_gamma   90.00000000
_symmetry_Int_Tables_number   1
_chemical_formula_structural   LiF
_chemical_formula_sum   'Li64 F64'
_cell_volume   1418.79005607
_cell_formula_units_Z   64
loop_
 _symmetry_equiv_pos_site_id
 _symmetry_equiv_pos_as_xyz
  1  'x, y, z'
loop_
 _atom_site_type_symbol
 _atom_site_label
 _atom_site_symmetry_multiplicity
 _atom_site_fract_x
 _atom_site_fract_y
 _atom_site_fract_z
 _atom_site_occupancy
  F  F0  1  0.23942229  0.43672284  0.50000000  1
  F  F1  1  0.76057771  0.56327716  0.50000000  1
  F  F2  1  0.56327716  0.23942229  0.50000000  1
  F  F3  1  0.43672284  0.76057771  0.50000000  1
  F  F4  1  0.76057771  0.43672284  0.50000000  1
  F  F5  1  0.23942229  0.56327716  0.50000000  1
  F  F6  1  0.43672284  0.23942229  0.50000000  1
  F  F7  1  0.56327716  0.76057771  0.50000000  1
  F  F8  1  0.82405438  0.50000000  0.73329536  1
  F  F9  1  0.17594562  0.50000000  0.73329536  1
  F  F10  1  0.50000000  0.82405438  0.73329536  1
  F  F11  1  0.50000000  0.17594562  0.73329536  1
  F  F12  1  0.17594562  0.50000000  0.26670464  1
  F  F13  1  0.82405438  0.50000000  0.26670464  1
  F  F14  1  0.50000000  0.82405438  0.26670464  1
  F  F15  1  0.50000000  0.17594562  0.26670464  1
  F  F16  1  0.20024236  0.88104618  0.54804206  1
  F  F17  1  -0.20024236  -0.88104618  0.54804206  1
  F  F18  1  -0.88104618  0.20024236  0.54804206  1
  F  F19  1  0.88104618  -0.20024236  0.54804206  1
  F  F20  1  -0.20024236  0.88104618  -0.54804206  1
  F  F21  1  0.20024236  -0.88104618  -0.54804206  1
  F  F22  1  0.88104618  0.20024236  -0.54804206  1
  F  F23  1  -0.88104618  -0.20024236  -0.54804206  1
  F  F24  1  -0.20024236  -0.88104618  -0.54804206  1
  F  F25  1  0.20024236  0.88104618  -0.54804206  1
  F  F26  1  0.88104618  -0.20024236  -0.54804206  1
  F  F27  1  -0.88104618  0.20024236  -0.54804206  1
  F  F28  1  0.20024236  -0.88104618  0.54804206  1
  F  F29  1  -0.20024236  0.88104618  0.54804206  1
  F  F30  1  -0.88104618  -0.20024236  0.54804206  1
  F  F31  1  0.88104618  0.20024236  0.54804206  1
  F  F32  1  0.60739920  0.00000000  -0.00000000  1
  F  F33  1  0.39260080  0.00000000  -0.00000000  1
  F  F34  1  0.00000000  0.60739920  -0.00000000  1
  F  F35  1  0.00000000  0.39260080  -0.00000000  1
  F  F36  1  0.33715799  0.22293860  0.45655861  1
  F  F37  1  0.66284201  0.77706140  0.45655861  1
  F  F38  1  0.77706140  0.33715799  0.45655861  1
  F  F39  1  0.22293860  0.66284201  0.45655861  1
  F  F40  1  0.66284201  0.22293860  0.54344139  1
  F  F41  1  0.33715799  0.77706140  0.54344139  1
  F  F42  1  0.22293860  0.33715799  0.54344139  1
  F  F43  1  0.77706140  0.66284201  0.54344139  1
  F  F44  1  0.66284201  0.77706140  0.54344139  1
  F  F45  1  0.33715799  0.22293860  0.54344139  1
  F  F46  1  0.22293860  0.66284201  0.54344139  1
  F  F47  1  0.77706140  0.33715799  0.54344139  1
  F  F48  1  0.33715799  0.77706140  0.45655861  1
  F  F49  1  0.66284201  0.22293860  0.45655861  1
  F  F50  1  0.77706140  0.66284201  0.45655861  1
  F  F51  1  0.22293860  0.33715799  0.45655861  1
  F  F52  1  0.00000000  0.00000000  0.07574992  1
  F  F53  1  0.00000000  0.00000000  0.92425008  1
  F  F54  1  0.70229341  0.00000000  -0.00000000  1
  F  F55  1  0.29770659  0.00000000  -0.00000000  1
  F  F56  1  0.00000000  0.70229341  -0.00000000  1
  F  F57  1  0.00000000  0.29770659  -0.00000000  1
  F  F58  1  0.50000000  0.50000000  -0.00000000  1
  F  F59  1  0.78581291  0.00000000  0.50000000  1
  F  F60  1  0.21418709  0.00000000  0.50000000  1
  F  F61  1  0.00000000  0.78581291  0.50000000  1
  F  F62  1  0.00000000  0.21418709  0.50000000  1
  F  F63  1  0.50000000  0.50000000  0.50000000  1
  Li  Li64  1  0.31912956  0.85332349  0.59887060  1
  Li  Li65  1  0.68087044  0.14667651  0.59887060  1
  Li  Li66  1  0.14667651  0.31912956  0.59887060  1
  Li  Li67  1  0.85332349  0.68087044  0.59887060  1
  Li  Li68  1  0.68087044  0.85332349  0.40112940  1
  Li  Li69  1  0.31912956  0.14667651  0.40112940  1
  Li  Li70  1  0.85332349  0.31912956  0.40112940  1
  Li  Li71  1  0.14667651  0.68087044  0.40112940  1
  Li  Li72  1  0.68087044  0.14667651  0.40112940  1
  Li  Li73  1  0.31912956  0.85332349  0.40112940  1
  Li  Li74  1  0.85332349  0.68087044  0.40112940  1
  Li  Li75  1  0.14667651  0.31912956  0.40112940  1
  Li  Li76  1  0.31912956  0.14667651  0.59887060  1
  Li  Li77  1  0.68087044  0.85332349  0.59887060  1
  Li  Li78  1  0.14667651  0.68087044  0.59887060  1
  Li  Li79  1  0.85332349  0.31912956  0.59887060  1
  Li  Li80  1  0.68745881  0.88062275  -0.00000000  1
  Li  Li81  1  0.31254119  0.11937725  -0.00000000  1
  Li  Li82  1  0.11937725  0.68745881  0.00000000  1
  Li  Li83  1  0.88062275  0.31254119  -0.00000000  1
  Li  Li84  1  0.31254119  0.88062275  -0.00000000  1
  Li  Li85  1  0.68745881  0.11937725  0.00000000  1
  Li  Li86  1  0.88062275  0.68745881  -0.00000000  1
  Li  Li87  1  0.11937725  0.31254119  -0.00000000  1
  Li  Li88  1  0.66934024  0.66934024  0.00000000  1
  Li  Li89  1  0.33065976  0.33065976  0.00000000  1
  Li  Li90  1  0.33065976  0.66934024  0.00000000  1
  Li  Li91  1  0.66934024  0.33065976  0.00000000  1
  Li  Li92  1  0.34148180  0.34148180  0.16293868  1
  Li  Li93  1  0.65851820  0.65851820  0.16293868  1
  Li  Li94  1  0.65851820  0.34148180  0.16293868  1
  Li  Li95  1  0.34148180  0.65851820  0.16293868  1
  Li  Li96  1  0.65851820  0.34148180  0.83706132  1
  Li  Li97  1  0.34148180  0.65851820  0.83706132  1
  Li  Li98  1  0.34148180  0.34148180  0.83706132  1
  Li  Li99  1  0.65851820  0.65851820  0.83706132  1
  Li  Li100  1  0.14270701  0.40742007  0.10830062  1
  Li  Li101  1  0.85729299  0.59257993  0.10830062  1
  Li  Li102  1  0.59257993  0.14270701  0.10830062  1
  Li  Li103  1  0.40742007  0.85729299  0.10830062  1
  Li  Li104  1  0.85729299  0.40742007  0.89169938  1
  Li  Li105  1  0.14270701  0.59257993  0.89169938  1
  Li  Li106  1  0.40742007  0.14270701  0.89169938  1
  Li  Li107  1  0.59257993  0.85729299  0.89169938  1
  Li  Li108  1  0.85729299  0.59257993  0.89169938  1
  Li  Li109  1  0.14270701  0.40742007  0.89169938  1
  Li  Li110  1  0.40742007  0.85729299  0.89169938  1
  Li  Li111  1  0.59257993  0.14270701  0.89169938  1
  Li  Li112  1  0.14270701  0.59257993  0.10830062  1
  Li  Li113  1  0.85729299  0.40742007  0.10830062  1
  Li  Li114  1  0.59257993  0.85729299  0.10830062  1
  Li  Li115  1  0.40742007  0.14270701  0.10830062  1
  Li  Li116  1  0.64595526  0.50000000  0.82401340  1
  Li  Li117  1  0.35404474  0.50000000  0.82401340  1
  Li  Li118  1  0.50000000  0.64595526  0.82401340  1
  Li  Li119  1  0.50000000  0.35404474  0.82401340  1
  Li  Li120  1  0.35404474  0.50000000  0.17598660  1
  Li  Li121  1  0.64595526  0.50000000  0.17598660  1
  Li  Li122  1  0.50000000  0.64595526  0.17598660  1
  Li  Li123  1  0.50000000  0.35404474  0.17598660  1
  Li  Li124  1  0.00000000  0.50000000  0.59561975  1
  Li  Li125  1  0.50000000  0.00000000  0.59561975  1
  Li  Li126  1  0.00000000  0.50000000  0.40438025  1
  Li  Li127  1  0.50000000  0.00000000  0.40438025  1
