# generated using pymatgen
data_LiF
_symmetry_space_group_name_H-M   'P 1'
_cell_length_a   9.44726057
_cell_length_b   6.90824015
_cell_length_c   10.28221617
_cell_angle_alpha   90.00000000
_cell_angle_beta   90.00000000
_cell_angle_gamma   90.00000000
_symmetry_Int_Tables_number   1
_chemical_formula_structural   LiF
_chemical_formula_sum   'Li24 F24'
_cell_volume   671.05798818
_cell_formula_units_Z   24
loop_
 _symmetry_equiv_pos_site_id
 _symmetry_equiv_pos_as_xyz
  1  'x, y, z'
loop_
 _atom_site_type_symbol
 _atom_site_label
 _atom_site_symmetry_multiplicity
 _atom_site_fract_x
 _atom_site_fract_y
 _atom_site_fract_z
 _atom_site_occupancy
  F  F0  1  0.79361315  0.25000000  0.94714792  1
  F  F1  1  0.70638685  0.75000000  0.44714792  1
  F  F2  1  0.20638685  0.75000000  0.05285208  1
  F  F3  1  0.29361315  0.25000000  0.55285208  1
  F  F4  1  0.16120554  0.85272875  0.39700004  1
  F  F5  1  0.33879446  0.14727125  0.89700004  1
  F  F6  1  0.83879446  0.35272875  0.60299996  1
  F  F7  1  0.66120554  0.64727125  0.10299996  1
  F  F8  1  0.83879446  0.14727125  0.60299996  1
  F  F9  1  0.66120554  0.85272875  0.10299996  1
  F  F10  1  0.16120554  0.64727125  0.39700004  1
  F  F11  1  0.33879446  0.35272875  0.89700004  1
  F  F12  1  0.73621574  0.90262715  0.59339104  1
  F  F13  1  0.76378426  0.09737285  0.09339104  1
  F  F14  1  0.26378426  0.40262715  0.40660896  1
  F  F15  1  0.23621574  0.59737285  0.90660896  1
  F  F16  1  0.26378426  0.09737285  0.40660896  1
  F  F17  1  0.23621574  0.90262715  0.90660896  1
  F  F18  1  0.73621574  0.59737285  0.59339104  1
  F  F19  1  0.76378426  0.40262715  0.09339104  1
  F  F20  1  0.17276971  0.25000000  0.37438898  1
  F  F21  1  0.32723029  0.75000000  0.87438898  1
  F  F22  1  0.82723029  0.75000000  0.62561102  1
  F  F23  1  0.67276971  0.25000000  0.12561102  1
  Li  Li24  1  0.00000000  0.00000000  0.00000000  1
  Li  Li25  1  0.50000000  0.00000000  0.50000000  1
  Li  Li26  1  0.00000000  0.50000000  0.00000000  1
  Li  Li27  1  0.50000000  0.50000000  0.50000000  1
  Li  Li28  1  0.56212955  0.25000000  0.38966972  1
  Li  Li29  1  0.93787045  0.75000000  0.88966972  1
  Li  Li30  1  0.43787045  0.75000000  0.61033028  1
  Li  Li31  1  0.06212955  0.25000000  0.11033028  1
  Li  Li32  1  0.33134094  0.91852916  0.03262760  1
  Li  Li33  1  0.16865906  -0.91852916  0.53262760  1
  Li  Li34  1  -0.33134094  1.41852916  -0.03262760  1
  Li  Li35  1  0.83134094  -0.41852916  0.46737240  1
  Li  Li36  1  -0.33134094  -0.91852916  -0.03262760  1
  Li  Li37  1  0.83134094  0.91852916  0.46737240  1
  Li  Li38  1  0.33134094  -0.41852916  0.03262760  1
  Li  Li39  1  0.16865906  1.41852916  0.53262760  1
  Li  Li40  1  0.73891624  0.25000000  0.68941491  1
  Li  Li41  1  0.76108376  0.75000000  0.18941491  1
  Li  Li42  1  0.26108376  0.75000000  0.31058509  1
  Li  Li43  1  0.23891624  0.25000000  0.81058509  1
  Li  Li44  1  0.00000000  0.00000000  0.50000000  1
  Li  Li45  1  0.50000000  0.00000000  0.00000000  1
  Li  Li46  1  0.00000000  0.50000000  0.50000000  1
  Li  Li47  1  0.50000000  0.50000000  0.00000000  1
