# generated using pymatgen
data_LiF
_symmetry_space_group_name_H-M   'P 1'
_cell_length_a   8.34896327
_cell_length_b   8.34896327
_cell_length_c   11.61143608
_cell_angle_alpha   90.00000000
_cell_angle_beta   90.00000000
_cell_angle_gamma   120.00000000
_symmetry_Int_Tables_number   1
_chemical_formula_structural   LiF
_chemical_formula_sum   'Li28 F28'
_cell_volume   700.94133002
_cell_formula_units_Z   28
loop_
 _symmetry_equiv_pos_site_id
 _symmetry_equiv_pos_as_xyz
  1  'x, y, z'
loop_
 _atom_site_type_symbol
 _atom_site_label
 _atom_site_symmetry_multiplicity
 _atom_site_fract_x
 _atom_site_fract_y
 _atom_site_fract_z
 _atom_site_occupancy
  F  F0  1  0.00000000  0.00000000  0.00000000  1
  F  F1  1  0.00000000  0.00000000  0.50000000  1
  F  F2  1  0.07333659  0.44913893  0.65137823  1
  F  F3  1  -0.44913893  -0.37580234  0.65137823  1
  F  F4  1  0.37580234  -0.07333659  0.65137823  1
  F  F5  1  -0.07333659  -0.44913893  1.15137823  1
  F  F6  1  0.44913893  0.37580234  1.15137823  1
  F  F7  1  -0.37580234  0.07333659  1.15137823  1
  F  F8  1  -0.07333659  -0.44913893  -0.65137823  1
  F  F9  1  0.44913893  0.37580234  -0.65137823  1
  F  F10  1  -0.37580234  0.07333659  -0.65137823  1
  F  F11  1  0.07333659  0.44913893  -0.15137823  1
  F  F12  1  -0.44913893  -0.37580234  -0.15137823  1
  F  F13  1  0.37580234  -0.07333659  -0.15137823  1
  F  F14  1  0.62815916  0.93870571  0.36420284  1
  F  F15  1  0.06129429  0.68945345  0.36420284  1
  F  F16  1  0.31054655  0.37184084  0.36420284  1
  F  F17  1  0.37184084  0.06129429  0.86420284  1
  F  F18  1  0.93870571  0.31054655  0.86420284  1
  F  F19  1  0.68945345  0.62815916  0.86420284  1
  F  F20  1  0.37184084  0.06129429  0.63579716  1
  F  F21  1  0.93870571  0.31054655  0.63579716  1
  F  F22  1  0.68945345  0.62815916  0.63579716  1
  F  F23  1  0.62815916  0.93870571  0.13579716  1
  F  F24  1  0.06129429  0.68945345  0.13579716  1
  F  F25  1  0.31054655  0.37184084  0.13579716  1
  F  F26  1  0.00000000  0.00000000  0.25000000  1
  F  F27  1  0.00000000  0.00000000  0.75000000  1
  Li  Li28  1  0.13155434  0.47753276  0.95506706  1
  Li  Li29  1  0.52246724  0.65402158  0.95506706  1
  Li  Li30  1  0.34597842  0.86844566  0.95506706  1
  Li  Li31  1  0.86844566  0.52246724  0.45506706  1
  Li  Li32  1  0.47753276  0.34597842  0.45506706  1
  Li  Li33  1  0.65402158  0.13155434  0.45506706  1
  Li  Li34  1  0.86844566  0.52246724  0.04493294  1
  Li  Li35  1  0.47753276  0.34597842  0.04493294  1
  Li  Li36  1  0.65402158  0.13155434  0.04493294  1
  Li  Li37  1  0.13155434  0.47753276  0.54493294  1
  Li  Li38  1  0.52246724  0.65402158  0.54493294  1
  Li  Li39  1  0.34597842  0.86844566  0.54493294  1
  Li  Li40  1  0.66666667  0.33333333  0.25000000  1
  Li  Li41  1  0.33333333  0.66666667  0.75000000  1
  Li  Li42  1  0.48533410  0.84434600  0.10497229  1
  Li  Li43  1  0.15565400  0.64098810  0.10497229  1
  Li  Li44  1  0.35901190  0.51466590  0.10497229  1
  Li  Li45  1  0.51466590  0.15565400  0.60497229  1
  Li  Li46  1  0.84434600  0.35901190  0.60497229  1
  Li  Li47  1  0.64098810  0.48533410  0.60497229  1
  Li  Li48  1  0.51466590  0.15565400  0.89502771  1
  Li  Li49  1  0.84434600  0.35901190  0.89502771  1
  Li  Li50  1  0.64098810  0.48533410  0.89502771  1
  Li  Li51  1  0.48533410  0.84434600  0.39502771  1
  Li  Li52  1  0.15565400  0.64098810  0.39502771  1
  Li  Li53  1  0.35901190  0.51466590  0.39502771  1
  Li  Li54  1  0.33333333  0.66666667  0.25000000  1
  Li  Li55  1  0.66666667  0.33333333  0.75000000  1
