# generated using pymatgen
data_LiF
_symmetry_space_group_name_H-M   'P 1'
_cell_length_a   10.32541611
_cell_length_b   6.08615552
_cell_length_c   10.71414601
_cell_angle_alpha   90.00000000
_cell_angle_beta   90.00000000
_cell_angle_gamma   90.00000000
_symmetry_Int_Tables_number   1
_chemical_formula_structural   LiF
_chemical_formula_sum   'Li24 F24'
_cell_volume   673.29930934
_cell_formula_units_Z   24
loop_
 _symmetry_equiv_pos_site_id
 _symmetry_equiv_pos_as_xyz
  1  'x, y, z'
loop_
 _atom_site_type_symbol
 _atom_site_label
 _atom_site_symmetry_multiplicity
 _atom_site_fract_x
 _atom_site_fract_y
 _atom_site_fract_z
 _atom_site_occupancy
  F  F0  1  0.04000783  0.84094573  0.55804692  1
  F  F1  1  0.45999217  0.15905427  0.05804692  1
  F  F2  1  0.95999217  0.34094573  0.44195308  1
  F  F3  1  0.54000783  0.65905427  0.94195308  1
  F  F4  1  0.95999217  0.15905427  0.44195308  1
  F  F5  1  0.54000783  0.84094573  0.94195308  1
  F  F6  1  0.04000783  0.65905427  0.55804692  1
  F  F7  1  0.45999217  0.34094573  0.05804692  1
  F  F8  1  0.29867420  0.03626367  0.78819271  1
  F  F9  1  0.20132580  0.96373633  0.28819271  1
  F  F10  1  0.70132580  0.53626367  0.21180729  1
  F  F11  1  0.79867420  0.46373633  0.71180729  1
  F  F12  1  0.70132580  0.96373633  0.21180729  1
  F  F13  1  0.79867420  0.03626367  0.71180729  1
  F  F14  1  0.29867420  0.46373633  0.78819271  1
  F  F15  1  0.20132580  0.53626367  0.28819271  1
  F  F16  1  0.00733155  0.61578865  0.06101204  1
  F  F17  1  0.49266845  0.38421135  0.56101204  1
  F  F18  1  0.99266845  0.11578865  0.93898796  1
  F  F19  1  0.50733155  0.88421135  0.43898796  1
  F  F20  1  0.99266845  0.38421135  0.93898796  1
  F  F21  1  0.50733155  0.61578865  0.43898796  1
  F  F22  1  0.00733155  0.88421135  0.06101204  1
  F  F23  1  0.49266845  0.11578865  0.56101204  1
  Li  Li24  1  0.80928126  0.25000000  0.33835340  1
  Li  Li25  1  0.69071874  0.75000000  0.83835340  1
  Li  Li26  1  0.19071874  0.75000000  0.66164660  1
  Li  Li27  1  0.30928126  0.25000000  0.16164660  1
  Li  Li28  1  0.00000000  0.00000000  0.00000000  1
  Li  Li29  1  0.50000000  0.00000000  0.50000000  1
  Li  Li30  1  0.00000000  0.50000000  0.00000000  1
  Li  Li31  1  0.50000000  0.50000000  0.50000000  1
  Li  Li32  1  0.54541671  0.25000000  0.30397008  1
  Li  Li33  1  0.95458329  0.75000000  0.80397008  1
  Li  Li34  1  0.45458329  0.75000000  0.69602992  1
  Li  Li35  1  0.04541671  0.25000000  0.19602992  1
  Li  Li36  1  0.59108424  0.25000000  0.03573355  1
  Li  Li37  1  0.90891576  0.75000000  0.53573355  1
  Li  Li38  1  0.40891576  0.75000000  0.96426645  1
  Li  Li39  1  0.09108424  0.25000000  0.46426645  1
  Li  Li40  1  0.77397703  0.85941602  0.36637202  1
  Li  Li41  1  -0.27397703  -0.85941602  0.86637202  1
  Li  Li42  1  -0.77397703  1.35941602  -0.36637202  1
  Li  Li43  1  1.27397703  -0.35941602  0.13362798  1
  Li  Li44  1  -0.77397703  -0.85941602  -0.36637202  1
  Li  Li45  1  1.27397703  0.85941602  0.13362798  1
  Li  Li46  1  0.77397703  -0.35941602  0.36637202  1
  Li  Li47  1  -0.27397703  1.35941602  0.86637202  1
