# generated using pymatgen
data_LiF
_symmetry_space_group_name_H-M   'P 1'
_cell_length_a   5.39984047
_cell_length_b   5.39984047
_cell_length_c   34.19267171
_cell_angle_alpha   90.00000000
_cell_angle_beta   90.00000000
_cell_angle_gamma   120.00000000
_symmetry_Int_Tables_number   1
_chemical_formula_structural   LiF
_chemical_formula_sum   'Li39 F39'
_cell_volume   863.42680521
_cell_formula_units_Z   39
loop_
 _symmetry_equiv_pos_site_id
 _symmetry_equiv_pos_as_xyz
  1  'x, y, z'
loop_
 _atom_site_type_symbol
 _atom_site_label
 _atom_site_symmetry_multiplicity
 _atom_site_fract_x
 _atom_site_fract_y
 _atom_site_fract_z
 _atom_site_occupancy
  F  F0  1  0.00000000  0.00000000  0.40761042  1
  F  F1  1  0.00000000  0.00000000  0.59238958  1
  F  F2  1  0.56144474  0.57917438  0.55366009  1
  F  F3  1  0.42082562  0.98227036  0.55366009  1
  F  F4  1  0.01772964  0.43855526  0.55366009  1
  F  F5  1  0.42082562  0.43855526  0.44633991  1
  F  F6  1  0.01772964  0.57917438  0.44633991  1
  F  F7  1  0.56144474  0.98227036  0.44633991  1
  F  F8  1  0.00000000  0.00000000  0.70795209  1
  F  F9  1  0.00000000  0.00000000  0.29204791  1
  F  F10  1  0.62483254  0.71969748  0.59461517  1
  F  F11  1  0.28030252  0.90513506  0.59461517  1
  F  F12  1  0.09486494  0.37516746  0.59461517  1
  F  F13  1  0.28030252  0.37516746  0.40538483  1
  F  F14  1  0.09486494  0.71969748  0.40538483  1
  F  F15  1  0.62483254  0.90513506  0.40538483  1
  F  F16  1  0.33333333  0.66666667  0.50000000  1
  F  F17  1  0.88879860  0.94927983  0.38164650  1
  F  F18  1  0.05072017  0.93951877  0.38164650  1
  F  F19  1  0.06048123  0.11120140  0.38164650  1
  F  F20  1  0.05072017  0.11120140  0.61835350  1
  F  F21  1  0.06048123  0.94927983  0.61835350  1
  F  F22  1  0.88879860  0.93951877  0.61835350  1
  F  F23  1  0.90835401  0.01756936  0.73157585  1
  F  F24  1  0.98243064  0.89078465  0.73157585  1
  F  F25  1  0.10921535  0.09164599  0.73157585  1
  F  F26  1  0.98243064  0.09164599  0.26842415  1
  F  F27  1  0.10921535  0.01756936  0.26842415  1
  F  F28  1  0.90835401  0.89078465  0.26842415  1
  F  F29  1  0.25514344  0.74024270  0.51625080  1
  F  F30  1  0.25975730  0.51490075  0.51625080  1
  F  F31  1  0.48509925  0.74485656  0.51625080  1
  F  F32  1  0.25975730  0.74485656  0.48374920  1
  F  F33  1  0.48509925  0.74024270  0.48374920  1
  F  F34  1  0.25514344  0.51490075  0.48374920  1
  F  F35  1  0.10332458  0.89667542  0.00000000  1
  F  F36  1  0.10332458  0.20664915  0.00000000  1
  F  F37  1  0.79335085  0.89667542  0.00000000  1
  F  F38  1  0.33333333  0.66666667  0.00000000  1
  Li  Li39  1  0.00000000  0.00000000  0.00000000  1
  Li  Li40  1  0.25101971  0.94320443  0.75887593  1
  Li  Li41  1  -0.94320443  -0.69218472  0.75887593  1
  Li  Li42  1  0.69218472  -0.25101971  0.75887593  1
  Li  Li43  1  -0.94320443  -0.25101971  -0.75887593  1
  Li  Li44  1  0.69218472  0.94320443  -0.75887593  1
  Li  Li45  1  0.25101971  -0.69218472  -0.75887593  1
  Li  Li46  1  0.66666667  0.33333333  0.50000000  1
  Li  Li47  1  0.08482470  0.19273710  0.84607888  1
  Li  Li48  1  0.80726290  0.89208760  0.84607888  1
  Li  Li49  1  0.10791240  0.91517530  0.84607888  1
  Li  Li50  1  0.80726290  0.91517530  0.15392112  1
  Li  Li51  1  0.10791240  0.19273710  0.15392112  1
  Li  Li52  1  0.08482470  0.89208760  0.15392112  1
  Li  Li53  1  0.95843803  0.56666499  0.89917358  1
  Li  Li54  1  0.43333501  0.39177304  0.89917358  1
  Li  Li55  1  0.60822696  0.04156197  0.89917358  1
  Li  Li56  1  0.43333501  0.04156197  0.10082642  1
  Li  Li57  1  0.60822696  0.56666499  0.10082642  1
  Li  Li58  1  0.95843803  0.39177304  0.10082642  1
  Li  Li59  1  0.99810307  0.77096186  0.35643953  1
  Li  Li60  1  0.22903814  0.22714121  0.35643953  1
  Li  Li61  1  0.77285879  0.00189693  0.35643953  1
  Li  Li62  1  0.22903814  0.00189693  0.64356047  1
  Li  Li63  1  0.77285879  0.77096186  0.64356047  1
  Li  Li64  1  0.99810307  0.22714121  0.64356047  1
  Li  Li65  1  0.00000000  0.00000000  0.50000000  1
  Li  Li66  1  0.32591521  0.15698664  0.98100216  1
  Li  Li67  1  0.84301336  0.16892857  0.98100216  1
  Li  Li68  1  0.83107143  0.67408479  0.98100216  1
  Li  Li69  1  0.84301336  0.67408479  0.01899784  1
  Li  Li70  1  0.83107143  0.15698664  0.01899784  1
  Li  Li71  1  0.32591521  0.16892857  0.01899784  1
  Li  Li72  1  0.50007044  0.65325383  0.03301512  1
  Li  Li73  1  0.34674617  0.84681661  0.03301512  1
  Li  Li74  1  0.15318339  0.49992956  0.03301512  1
  Li  Li75  1  0.34674617  0.49992956  0.96698488  1
  Li  Li76  1  0.15318339  0.65325383  0.96698488  1
  Li  Li77  1  0.50007044  0.84681661  0.96698488  1
