# generated using pymatgen
data_LiF
_symmetry_space_group_name_H-M   'P 1'
_cell_length_a   6.91653994
_cell_length_b   14.20799716
_cell_length_c   6.22646863
_cell_angle_alpha   90.00000000
_cell_angle_beta   90.00000000
_cell_angle_gamma   90.00000000
_symmetry_Int_Tables_number   1
_chemical_formula_structural   LiF
_chemical_formula_sum   'Li24 F24'
_cell_volume   611.87619121
_cell_formula_units_Z   24
loop_
 _symmetry_equiv_pos_site_id
 _symmetry_equiv_pos_as_xyz
  1  'x, y, z'
loop_
 _atom_site_type_symbol
 _atom_site_label
 _atom_site_symmetry_multiplicity
 _atom_site_fract_x
 _atom_site_fract_y
 _atom_site_fract_z
 _atom_site_occupancy
  F  F0  1  0.01060643  0.69344778  0.59366162  1
  F  F1  1  0.48939357  0.30655222  0.09366162  1
  F  F2  1  0.98939357  0.19344778  0.40633838  1
  F  F3  1  0.51060643  0.80655222  0.90633838  1
  F  F4  1  0.98939357  0.30655222  0.40633838  1
  F  F5  1  0.51060643  0.69344778  0.90633838  1
  F  F6  1  0.01060643  0.80655222  0.59366162  1
  F  F7  1  0.48939357  0.19344778  0.09366162  1
  F  F8  1  0.51240584  0.18049586  0.56287931  1
  F  F9  1  0.98759416  0.81950414  0.06287931  1
  F  F10  1  0.48759416  0.68049586  0.43712069  1
  F  F11  1  0.01240584  0.31950414  0.93712069  1
  F  F12  1  0.48759416  0.81950414  0.43712069  1
  F  F13  1  0.01240584  0.18049586  0.93712069  1
  F  F14  1  0.51240584  0.31950414  0.56287931  1
  F  F15  1  0.98759416  0.68049586  0.06287931  1
  F  F16  1  0.53776464  0.25000000  0.51407615  1
  F  F17  1  0.96223536  0.75000000  0.01407615  1
  F  F18  1  0.46223536  0.75000000  0.48592385  1
  F  F19  1  0.03776464  0.25000000  0.98592385  1
  F  F20  1  0.00000000  0.00000000  0.00000000  1
  F  F21  1  0.50000000  0.00000000  0.50000000  1
  F  F22  1  0.00000000  0.50000000  0.00000000  1
  F  F23  1  0.50000000  0.50000000  0.50000000  1
  Li  Li24  1  0.99623149  0.64050237  0.70216665  1
  Li  Li25  1  -0.49623149  -0.64050237  1.20216665  1
  Li  Li26  1  -0.99623149  1.14050237  -0.70216665  1
  Li  Li27  1  1.49623149  -0.14050237  -0.20216665  1
  Li  Li28  1  -0.99623149  -0.64050237  -0.70216665  1
  Li  Li29  1  1.49623149  0.64050237  -0.20216665  1
  Li  Li30  1  0.99623149  -0.14050237  0.70216665  1
  Li  Li31  1  -0.49623149  1.14050237  1.20216665  1
  Li  Li32  1  0.13333179  0.25000000  0.47654533  1
  Li  Li33  1  0.36666821  0.75000000  0.97654533  1
  Li  Li34  1  0.86666821  0.75000000  0.52345467  1
  Li  Li35  1  0.63333179  0.25000000  0.02345467  1
  Li  Li36  1  0.68660513  0.41374089  0.62583846  1
  Li  Li37  1  0.81339487  0.58625911  0.12583846  1
  Li  Li38  1  0.31339487  0.91374089  0.37416154  1
  Li  Li39  1  0.18660513  0.08625911  0.87416154  1
  Li  Li40  1  0.31339487  0.58625911  0.37416154  1
  Li  Li41  1  0.18660513  0.41374089  0.87416154  1
  Li  Li42  1  0.68660513  0.08625911  0.62583846  1
  Li  Li43  1  0.81339487  0.91374089  0.12583846  1
  Li  Li44  1  0.00000000  0.00000000  0.50000000  1
  Li  Li45  1  0.50000000  0.00000000  0.00000000  1
  Li  Li46  1  0.00000000  0.50000000  0.50000000  1
  Li  Li47  1  0.50000000  0.50000000  0.00000000  1
