# generated using pymatgen
data_LiF
_symmetry_space_group_name_H-M   'P 1'
_cell_length_a   9.24974861
_cell_length_b   8.00631869
_cell_length_c   6.78237243
_cell_angle_alpha   90.00000000
_cell_angle_beta   90.00000000
_cell_angle_gamma   90.00000000
_symmetry_Int_Tables_number   1
_chemical_formula_structural   LiF
_chemical_formula_sum   'Li24 F24'
_cell_volume   502.27832390
_cell_formula_units_Z   24
loop_
 _symmetry_equiv_pos_site_id
 _symmetry_equiv_pos_as_xyz
  1  'x, y, z'
loop_
 _atom_site_type_symbol
 _atom_site_label
 _atom_site_symmetry_multiplicity
 _atom_site_fract_x
 _atom_site_fract_y
 _atom_site_fract_z
 _atom_site_occupancy
  F  F0  1  0.77650040  0.09488762  0.09418564  1
  F  F1  1  0.72349960  0.90511238  0.59418564  1
  F  F2  1  0.22349960  0.59488762  0.90581436  1
  F  F3  1  0.27650040  0.40511238  0.40581436  1
  F  F4  1  0.22349960  0.90511238  0.90581436  1
  F  F5  1  0.27650040  0.09488762  0.40581436  1
  F  F6  1  0.77650040  0.40511238  0.09418564  1
  F  F7  1  0.72349960  0.59488762  0.59418564  1
  F  F8  1  0.70095638  0.96995553  0.74775524  1
  F  F9  1  0.79904362  0.03004447  0.24775524  1
  F  F10  1  0.29904362  0.46995553  0.25224476  1
  F  F11  1  0.20095638  0.53004447  0.75224476  1
  F  F12  1  0.29904362  0.03004447  0.25224476  1
  F  F13  1  0.20095638  0.96995553  0.75224476  1
  F  F14  1  0.70095638  0.53004447  0.74775524  1
  F  F15  1  0.79904362  0.46995553  0.24775524  1
  F  F16  1  0.92162972  0.47802282  0.36069055  1
  F  F17  1  0.57837028  0.52197718  0.86069055  1
  F  F18  1  0.07837028  0.97802282  0.63930945  1
  F  F19  1  0.42162972  0.02197718  0.13930945  1
  F  F20  1  0.07837028  0.52197718  0.63930945  1
  F  F21  1  0.42162972  0.47802282  0.13930945  1
  F  F22  1  0.92162972  0.02197718  0.36069055  1
  F  F23  1  0.57837028  0.97802282  0.86069055  1
  Li  Li24  1  0.00000000  0.00000000  0.00000000  1
  Li  Li25  1  0.50000000  0.00000000  0.50000000  1
  Li  Li26  1  0.00000000  0.50000000  0.00000000  1
  Li  Li27  1  0.50000000  0.50000000  0.50000000  1
  Li  Li28  1  0.57184693  0.05101630  0.97307321  1
  Li  Li29  1  -0.07184693  -0.05101630  1.47307321  1
  Li  Li30  1  -0.57184693  0.55101630  -0.97307321  1
  Li  Li31  1  1.07184693  0.44898370  -0.47307321  1
  Li  Li32  1  -0.57184693  -0.05101630  -0.97307321  1
  Li  Li33  1  1.07184693  0.05101630  -0.47307321  1
  Li  Li34  1  0.57184693  0.44898370  0.97307321  1
  Li  Li35  1  -0.07184693  0.55101630  1.47307321  1
  Li  Li36  1  0.09990161  0.25000000  0.25685729  1
  Li  Li37  1  0.40009839  0.75000000  0.75685729  1
  Li  Li38  1  0.90009839  0.75000000  0.74314271  1
  Li  Li39  1  0.59990161  0.25000000  0.24314271  1
  Li  Li40  1  0.34470044  0.25000000  0.43162577  1
  Li  Li41  1  0.15529956  0.75000000  0.93162577  1
  Li  Li42  1  0.65529956  0.75000000  0.56837423  1
  Li  Li43  1  0.84470044  0.25000000  0.06837423  1
  Li  Li44  1  0.92785872  0.25000000  0.28971156  1
  Li  Li45  1  0.57214128  0.75000000  0.78971156  1
  Li  Li46  1  0.07214128  0.75000000  0.71028844  1
  Li  Li47  1  0.42785872  0.25000000  0.21028844  1
