# generated using pymatgen
data_Li2Y2As2P3Se
_symmetry_space_group_name_H-M   'P 1'
_cell_length_a   5.38946431
_cell_length_b   5.45063132
_cell_length_c   7.28710314
_cell_angle_alpha   94.12597165
_cell_angle_beta   98.98550848
_cell_angle_gamma   106.57238828
_symmetry_Int_Tables_number   1
_chemical_formula_structural   Li2Y2As2P3Se
_chemical_formula_sum   'Li2 Y2 As2 P3 Se1'
_cell_volume   201.11538145
_cell_formula_units_Z   1
loop_
 _symmetry_equiv_pos_site_id
 _symmetry_equiv_pos_as_xyz
  1  'x, y, z'
loop_
 _atom_site_type_symbol
 _atom_site_label
 _atom_site_symmetry_multiplicity
 _atom_site_fract_x
 _atom_site_fract_y
 _atom_site_fract_z
 _atom_site_occupancy
  Se  Se0  1  0.00000000  0.00000000  0.00000000  1
  Y  Y1  1  0.50000000  0.50000000  0.50000000  1
  Y  Y2  1  0.25000000  0.25000000  0.25000000  1
  P  P3  1  0.75000000  0.25000000  0.00000000  1
  P  P4  1  0.25000000  0.75000000  0.50000000  1
  P  P5  1  0.88186074  0.21374949  0.20531908  1
  As  As6  1  0.29109066  0.11296159  0.36779229  1
  As  As7  1  0.53484142  0.59693374  0.77976455  1
  Li  Li8  1  0.20291184  0.10119486  0.15239565  1
  Li  Li9  1  0.45975110  0.86164558  0.86158061  1
