# generated using pymatgen
data_LiF
_symmetry_space_group_name_H-M   'P 1'
_cell_length_a   8.00759974
_cell_length_b   10.09525314
_cell_length_c   7.82841091
_cell_angle_alpha   90.00000000
_cell_angle_beta   90.00000000
_cell_angle_gamma   90.00000000
_symmetry_Int_Tables_number   1
_chemical_formula_structural   LiF
_chemical_formula_sum   'Li24 F24'
_cell_volume   632.83892422
_cell_formula_units_Z   24
loop_
 _symmetry_equiv_pos_site_id
 _symmetry_equiv_pos_as_xyz
  1  'x, y, z'
loop_
 _atom_site_type_symbol
 _atom_site_label
 _atom_site_symmetry_multiplicity
 _atom_site_fract_x
 _atom_site_fract_y
 _atom_site_fract_z
 _atom_site_occupancy
  F  F0  1  0.66718586  0.33428647  0.86221941  1
  F  F1  1  0.83281414  0.66571353  0.36221941  1
  F  F2  1  0.33281414  0.83428647  0.13778059  1
  F  F3  1  0.16718586  0.16571353  0.63778059  1
  F  F4  1  0.33281414  0.66571353  0.13778059  1
  F  F5  1  0.16718586  0.33428647  0.63778059  1
  F  F6  1  0.66718586  0.16571353  0.86221941  1
  F  F7  1  0.83281414  0.83428647  0.36221941  1
  F  F8  1  0.13356636  0.25000000  0.46769731  1
  F  F9  1  0.36643364  0.75000000  0.96769731  1
  F  F10  1  0.86643364  0.75000000  0.53230269  1
  F  F11  1  0.63356636  0.25000000  0.03230269  1
  F  F12  1  0.85342009  0.99788980  0.91989931  1
  F  F13  1  0.64657991  0.00211020  0.41989931  1
  F  F14  1  0.14657991  0.49788980  0.08010069  1
  F  F15  1  0.35342009  0.50211020  0.58010069  1
  F  F16  1  0.14657991  0.00211020  0.08010069  1
  F  F17  1  0.35342009  0.99788980  0.58010069  1
  F  F18  1  0.85342009  0.50211020  0.91989931  1
  F  F19  1  0.64657991  0.49788980  0.41989931  1
  F  F20  1  0.32160797  0.25000000  0.83774193  1
  F  F21  1  0.17839203  0.75000000  0.33774193  1
  F  F22  1  0.67839203  0.75000000  0.16225807  1
  F  F23  1  0.82160797  0.25000000  0.66225807  1
  Li  Li24  1  0.00000000  0.00000000  0.50000000  1
  Li  Li25  1  0.50000000  0.00000000  -0.00000000  1
  Li  Li26  1  0.00000000  0.50000000  0.50000000  1
  Li  Li27  1  0.50000000  0.50000000  0.00000000  1
  Li  Li28  1  0.31987111  0.87707333  0.33941359  1
  Li  Li29  1  0.18012889  -0.87707333  0.83941359  1
  Li  Li30  1  -0.31987111  1.37707333  -0.33941359  1
  Li  Li31  1  0.81987111  -0.37707333  0.16058641  1
  Li  Li32  1  -0.31987111  -0.87707333  -0.33941359  1
  Li  Li33  1  0.81987111  0.87707333  0.16058641  1
  Li  Li34  1  0.31987111  -0.37707333  0.33941359  1
  Li  Li35  1  0.18012889  1.37707333  0.83941359  1
  Li  Li36  1  0.15401468  0.25000000  0.00924946  1
  Li  Li37  1  0.34598532  0.75000000  0.50924946  1
  Li  Li38  1  0.84598532  0.75000000  0.99075054  1
  Li  Li39  1  0.65401468  0.25000000  0.49075054  1
  Li  Li40  1  0.00000000  0.00000000  0.00000000  1
  Li  Li41  1  0.50000000  0.00000000  0.50000000  1
  Li  Li42  1  0.00000000  0.50000000  -0.00000000  1
  Li  Li43  1  0.50000000  0.50000000  0.50000000  1
  Li  Li44  1  0.80036951  0.25000000  0.41568651  1
  Li  Li45  1  0.69963049  0.75000000  0.91568651  1
  Li  Li46  1  0.19963049  0.75000000  0.58431349  1
  Li  Li47  1  0.30036951  0.25000000  0.08431349  1
