# generated using pymatgen
data_Li2Ca3F8
_symmetry_space_group_name_H-M   'P 1'
_cell_length_a   11.49250081
_cell_length_b   11.49250081
_cell_length_c   12.85970663
_cell_angle_alpha   90.00000000
_cell_angle_beta   90.00000000
_cell_angle_gamma   90.00000000
_symmetry_Int_Tables_number   1
_chemical_formula_structural   Li2Ca3F8
_chemical_formula_sum   'Li16 Ca24 F64'
_cell_volume   1698.47886583
_cell_formula_units_Z   8
loop_
 _symmetry_equiv_pos_site_id
 _symmetry_equiv_pos_as_xyz
  1  'x, y, z'
loop_
 _atom_site_type_symbol
 _atom_site_label
 _atom_site_symmetry_multiplicity
 _atom_site_fract_x
 _atom_site_fract_y
 _atom_site_fract_z
 _atom_site_occupancy
  Ca  Ca0  1  0.37243724  0.62243724  0.12500000  1
  Ca  Ca1  1  0.12756276  0.37756276  0.62500000  1
  Ca  Ca2  1  0.62756276  0.12243724  0.37500000  1
  Ca  Ca3  1  0.87243724  0.87756276  0.87500000  1
  Ca  Ca4  1  0.62756276  0.37756276  0.87500000  1
  Ca  Ca5  1  0.87243724  0.62243724  0.37500000  1
  Ca  Ca6  1  0.37243724  0.87756276  0.62500000  1
  Ca  Ca7  1  0.12756276  0.12243724  0.12500000  1
  Ca  Ca8  1  0.87243724  0.12243724  0.62500000  1
  Ca  Ca9  1  0.62756276  0.87756276  0.12500000  1
  Ca  Ca10  1  0.12756276  0.62243724  0.87500000  1
  Ca  Ca11  1  0.37243724  0.37756276  0.37500000  1
  Ca  Ca12  1  0.12756276  0.87756276  0.37500000  1
  Ca  Ca13  1  0.37243724  0.12243724  0.87500000  1
  Ca  Ca14  1  0.87243724  0.37756276  0.12500000  1
  Ca  Ca15  1  0.62756276  0.62243724  0.62500000  1
  Ca  Ca16  1  0.00000000  0.25000000  0.12500000  1
  Ca  Ca17  1  0.00000000  0.75000000  0.37500000  1
  Ca  Ca18  1  0.00000000  0.75000000  0.87500000  1
  Ca  Ca19  1  0.00000000  0.25000000  0.62500000  1
  Ca  Ca20  1  0.50000000  0.75000000  0.62500000  1
  Ca  Ca21  1  0.50000000  0.25000000  0.87500000  1
  Ca  Ca22  1  0.50000000  0.25000000  0.37500000  1
  Ca  Ca23  1  0.50000000  0.75000000  0.12500000  1
  F  F24  1  0.00000000  0.25000000  0.90771610  1
  F  F25  1  0.00000000  0.75000000  0.15771610  1
  F  F26  1  0.50000000  0.25000000  0.09228390  1
  F  F27  1  0.50000000  0.75000000  0.84228390  1
  F  F28  1  0.00000000  0.75000000  0.09228390  1
  F  F29  1  0.00000000  0.25000000  0.84228390  1
  F  F30  1  0.50000000  0.75000000  0.90771610  1
  F  F31  1  0.50000000  0.25000000  0.15771610  1
  F  F32  1  0.50000000  0.75000000  0.40771610  1
  F  F33  1  0.50000000  0.25000000  0.65771610  1
  F  F34  1  0.00000000  0.75000000  0.59228390  1
  F  F35  1  0.00000000  0.25000000  0.34228390  1
  F  F36  1  0.50000000  0.25000000  0.59228390  1
  F  F37  1  0.50000000  0.75000000  0.34228390  1
  F  F38  1  0.00000000  0.25000000  0.40771610  1
  F  F39  1  0.00000000  0.75000000  0.65771610  1
  F  F40  1  0.34330613  0.00000000  0.25000000  1
  F  F41  1  0.15669387  0.00000000  0.75000000  1
  F  F42  1  0.25000000  0.09330613  0.50000000  1
  F  F43  1  0.25000000  0.90669387  0.00000000  1
  F  F44  1  0.65669387  0.00000000  0.75000000  1
  F  F45  1  0.84330613  0.00000000  0.25000000  1
  F  F46  1  0.75000000  0.90669387  0.50000000  1
  F  F47  1  0.75000000  0.09330613  0.00000000  1
  F  F48  1  0.84330613  0.50000000  0.75000000  1
  F  F49  1  0.65669387  0.50000000  0.25000000  1
  F  F50  1  0.75000000  0.59330613  0.00000000  1
  F  F51  1  0.75000000  0.40669387  0.50000000  1
  F  F52  1  0.15669387  0.50000000  0.25000000  1
  F  F53  1  0.34330613  0.50000000  0.75000000  1
  F  F54  1  0.25000000  0.40669387  0.00000000  1
  F  F55  1  0.25000000  0.59330613  0.50000000  1
  F  F56  1  0.81954846  0.77639492  0.82759208  1
  F  F57  1  -0.31954846  -0.77639492  1.32759208  1
  F  F58  1  -0.52639492  1.56954846  1.07759208  1
  F  F59  1  1.02639492  -0.56954846  1.57759208  1
  F  F60  1  -0.31954846  0.77639492  -0.82759208  1
  F  F61  1  0.81954846  -0.77639492  -0.32759208  1
  F  F62  1  1.02639492  1.56954846  -0.07759208  1
  F  F63  1  -0.52639492  -0.56954846  -0.57759208  1
  F  F64  1  -0.81954846  -0.77639492  -0.82759208  1
  F  F65  1  1.31954846  0.77639492  -0.32759208  1
  F  F66  1  1.52639492  -0.56954846  -0.07759208  1
  F  F67  1  -0.02639492  1.56954846  -0.57759208  1
  F  F68  1  1.31954846  -0.77639492  0.82759208  1
  F  F69  1  -0.81954846  0.77639492  1.32759208  1
  F  F70  1  -0.02639492  -0.56954846  1.07759208  1
  F  F71  1  1.52639492  1.56954846  1.57759208  1
  F  F72  1  1.31954846  1.27639492  1.32759208  1
  F  F73  1  0.18045154  -0.27639492  1.82759208  1
  F  F74  1  -0.02639492  2.06954846  1.57759208  1
  F  F75  1  1.52639492  -0.06954846  2.07759208  1
  F  F76  1  0.18045154  1.27639492  -0.32759208  1
  F  F77  1  1.31954846  -0.27639492  0.17240792  1
  F  F78  1  1.52639492  2.06954846  0.42240792  1
  F  F79  1  -0.02639492  -0.06954846  -0.07759208  1
  F  F80  1  -0.31954846  -0.27639492  -0.32759208  1
  F  F81  1  1.81954846  1.27639492  0.17240792  1
  F  F82  1  2.02639492  -0.06954846  0.42240792  1
  F  F83  1  0.47360508  2.06954846  -0.07759208  1
  F  F84  1  1.81954846  -0.27639492  1.32759208  1
  F  F85  1  -0.31954846  1.27639492  1.82759208  1
  F  F86  1  0.47360508  -0.06954846  1.57759208  1
  F  F87  1  2.02639492  2.06954846  2.07759208  1
  Li  Li88  1  0.95581108  0.00000000  0.25000000  1
  Li  Li89  1  0.54418892  0.00000000  0.75000000  1
  Li  Li90  1  0.25000000  0.70581108  0.50000000  1
  Li  Li91  1  0.25000000  0.29418892  0.00000000  1
  Li  Li92  1  0.04418892  0.00000000  0.75000000  1
  Li  Li93  1  0.45581108  0.00000000  0.25000000  1
  Li  Li94  1  0.75000000  0.29418892  0.50000000  1
  Li  Li95  1  0.75000000  0.70581108  -0.00000000  1
  Li  Li96  1  0.45581108  0.50000000  0.75000000  1
  Li  Li97  1  0.04418892  0.50000000  0.25000000  1
  Li  Li98  1  0.75000000  0.20581108  0.00000000  1
  Li  Li99  1  0.75000000  0.79418892  0.50000000  1
  Li  Li100  1  0.54418892  0.50000000  0.25000000  1
  Li  Li101  1  0.95581108  0.50000000  0.75000000  1
  Li  Li102  1  0.25000000  0.79418892  0.00000000  1
  Li  Li103  1  0.25000000  0.20581108  0.50000000  1
