# generated using pymatgen
data_LiF
_symmetry_space_group_name_H-M   'P 1'
_cell_length_a   6.17660523
_cell_length_b   5.39327414
_cell_length_c   6.38243169
_cell_angle_alpha   90.00000000
_cell_angle_beta   90.00000000
_cell_angle_gamma   90.00000000
_symmetry_Int_Tables_number   1
_chemical_formula_structural   LiF
_chemical_formula_sum   'Li10 F10'
_cell_volume   212.61236387
_cell_formula_units_Z   10
loop_
 _symmetry_equiv_pos_site_id
 _symmetry_equiv_pos_as_xyz
  1  'x, y, z'
loop_
 _atom_site_type_symbol
 _atom_site_label
 _atom_site_symmetry_multiplicity
 _atom_site_fract_x
 _atom_site_fract_y
 _atom_site_fract_z
 _atom_site_occupancy
  F  F0  1  0.00000000  0.50000000  0.00000000  1
  F  F1  1  0.50000000  0.00000000  0.50000000  1
  F  F2  1  0.21881609  0.89300285  0.67903530  1
  F  F3  1  -0.21881609  -0.89300285  0.67903530  1
  F  F4  1  0.28118391  1.39300285  -0.17903530  1
  F  F5  1  0.71881609  -0.39300285  -0.17903530  1
  F  F6  1  -0.21881609  -0.89300285  -0.67903530  1
  F  F7  1  0.21881609  0.89300285  -0.67903530  1
  F  F8  1  0.71881609  -0.39300285  1.17903530  1
  F  F9  1  0.28118391  1.39300285  1.17903530  1
  Li  Li10  1  0.65536561  0.67461437  -0.00000000  1
  Li  Li11  1  0.34463439  0.32538563  0.00000000  1
  Li  Li12  1  0.84463439  0.17461437  0.50000000  1
  Li  Li13  1  0.15536561  0.82538563  0.50000000  1
  Li  Li14  1  0.00000000  0.00000000  0.00000000  1
  Li  Li15  1  0.50000000  0.50000000  0.50000000  1
  Li  Li16  1  0.36934524  0.62517311  -0.00000000  1
  Li  Li17  1  0.63065476  0.37482689  0.00000000  1
  Li  Li18  1  0.13065476  0.12517311  0.50000000  1
  Li  Li19  1  0.86934524  0.87482689  0.50000000  1
