# generated using pymatgen
data_LiY2P2Se
_symmetry_space_group_name_H-M   'P 1'
_cell_length_a   5.10445880
_cell_length_b   5.05572584
_cell_length_c   7.19482648
_cell_angle_alpha   94.68790826
_cell_angle_beta   100.20928959
_cell_angle_gamma   108.82946431
_symmetry_Int_Tables_number   1
_chemical_formula_structural   LiY2P2Se
_chemical_formula_sum   'Li1 Y2 P2 Se1'
_cell_volume   171.02124446
_cell_formula_units_Z   1
loop_
 _symmetry_equiv_pos_site_id
 _symmetry_equiv_pos_as_xyz
  1  'x, y, z'
loop_
 _atom_site_type_symbol
 _atom_site_label
 _atom_site_symmetry_multiplicity
 _atom_site_fract_x
 _atom_site_fract_y
 _atom_site_fract_z
 _atom_site_occupancy
  Se  Se0  1  0.00000000  0.00000000  0.00000000  1
  P  P1  1  0.33300000  0.66700000  0.25000000  1
  P  P2  1  0.66700000  0.33300000  0.50000000  1
  Li  Li3  1  0.00000000  0.00000000  0.75000000  1
  Y  Y4  1  0.43803867  0.87861264  0.52747506  1
  Y  Y5  1  0.26919000  0.87252420  0.06215891  1
