# generated using pymatgen
data_LiF
_symmetry_space_group_name_H-M   'P 1'
_cell_length_a   7.62051859
_cell_length_b   9.84591671
_cell_length_c   8.83550060
_cell_angle_alpha   90.00000000
_cell_angle_beta   90.00000000
_cell_angle_gamma   90.00000000
_symmetry_Int_Tables_number   1
_chemical_formula_structural   LiF
_chemical_formula_sum   'Li28 F28'
_cell_volume   662.93636807
_cell_formula_units_Z   28
loop_
 _symmetry_equiv_pos_site_id
 _symmetry_equiv_pos_as_xyz
  1  'x, y, z'
loop_
 _atom_site_type_symbol
 _atom_site_label
 _atom_site_symmetry_multiplicity
 _atom_site_fract_x
 _atom_site_fract_y
 _atom_site_fract_z
 _atom_site_occupancy
  F  F0  1  0.78942254  0.25000000  0.25296340  1
  F  F1  1  0.71057746  0.75000000  0.75296340  1
  F  F2  1  0.21057746  0.75000000  0.74703660  1
  F  F3  1  0.28942254  0.25000000  0.24703660  1
  F  F4  1  0.85167787  0.29166877  0.04982786  1
  F  F5  1  0.64832213  0.70833123  0.54982786  1
  F  F6  1  0.14832213  0.79166877  0.95017214  1
  F  F7  1  0.35167787  0.20833123  0.45017214  1
  F  F8  1  0.14832213  0.70833123  0.95017214  1
  F  F9  1  0.35167787  0.29166877  0.45017214  1
  F  F10  1  0.85167787  0.20833123  0.04982786  1
  F  F11  1  0.64832213  0.79166877  0.54982786  1
  F  F12  1  0.19549113  0.89344737  0.97930745  1
  F  F13  1  0.30450887  0.10655263  0.47930745  1
  F  F14  1  0.80450887  0.39344737  0.02069255  1
  F  F15  1  0.69549113  0.60655263  0.52069255  1
  F  F16  1  0.80450887  0.10655263  0.02069255  1
  F  F17  1  0.69549113  0.89344737  0.52069255  1
  F  F18  1  0.19549113  0.60655263  0.97930745  1
  F  F19  1  0.30450887  0.39344737  0.47930745  1
  F  F20  1  0.58657485  0.53638660  0.57961708  1
  F  F21  1  0.91342515  0.46361340  0.07961708  1
  F  F22  1  0.41342515  0.03638660  0.42038292  1
  F  F23  1  0.08657485  0.96361340  0.92038292  1
  F  F24  1  0.41342515  0.46361340  0.42038292  1
  F  F25  1  0.08657485  0.53638660  0.92038292  1
  F  F26  1  0.58657485  0.96361340  0.57961708  1
  F  F27  1  0.91342515  0.03638660  0.07961708  1
  Li  Li28  1  0.01008829  0.25000000  0.67214403  1
  Li  Li29  1  0.48991171  0.75000000  0.17214403  1
  Li  Li30  1  0.98991171  0.75000000  0.32785597  1
  Li  Li31  1  0.51008829  0.25000000  0.82785597  1
  Li  Li32  1  0.00000000  0.00000000  0.50000000  1
  Li  Li33  1  0.50000000  0.00000000  -0.00000000  1
  Li  Li34  1  0.00000000  0.50000000  0.50000000  1
  Li  Li35  1  0.50000000  0.50000000  0.00000000  1
  Li  Li36  1  0.24260467  0.83158460  0.87164173  1
  Li  Li37  1  0.25739533  -0.83158460  1.37164173  1
  Li  Li38  1  -0.24260467  1.33158460  -0.87164173  1
  Li  Li39  1  0.74260467  -0.33158460  -0.37164173  1
  Li  Li40  1  -0.24260467  -0.83158460  -0.87164173  1
  Li  Li41  1  0.74260467  0.83158460  -0.37164173  1
  Li  Li42  1  0.24260467  -0.33158460  0.87164173  1
  Li  Li43  1  0.25739533  1.33158460  1.37164173  1
  Li  Li44  1  0.55777267  0.25000000  0.27935960  1
  Li  Li45  1  0.94222733  0.75000000  0.77935960  1
  Li  Li46  1  0.44222733  0.75000000  0.72064040  1
  Li  Li47  1  0.05777267  0.25000000  0.22064040  1
  Li  Li48  1  0.38151120  0.25000000  0.94052197  1
  Li  Li49  1  0.11848880  0.75000000  0.44052197  1
  Li  Li50  1  0.61848880  0.75000000  0.05947803  1
  Li  Li51  1  0.88151120  0.25000000  0.55947803  1
  Li  Li52  1  0.00000000  0.00000000  0.00000000  1
  Li  Li53  1  0.50000000  0.00000000  0.50000000  1
  Li  Li54  1  0.00000000  0.50000000  0.00000000  1
  Li  Li55  1  0.50000000  0.50000000  0.50000000  1
