# generated using pymatgen
data_Li2Te4P2Se
_symmetry_space_group_name_H-M   'P 1'
_cell_length_a   5.42559117
_cell_length_b   5.58108764
_cell_length_c   7.01511722
_cell_angle_alpha   93.42404391
_cell_angle_beta   97.78294499
_cell_angle_gamma   104.14675759
_symmetry_Int_Tables_number   1
_chemical_formula_structural   Li2Te4P2Se
_chemical_formula_sum   'Li2 Te4 P2 Se1'
_cell_volume   203.12828345
_cell_formula_units_Z   1
loop_
 _symmetry_equiv_pos_site_id
 _symmetry_equiv_pos_as_xyz
  1  'x, y, z'
loop_
 _atom_site_type_symbol
 _atom_site_label
 _atom_site_symmetry_multiplicity
 _atom_site_fract_x
 _atom_site_fract_y
 _atom_site_fract_z
 _atom_site_occupancy
  Se  Se0  1  0.12500000  0.00000000  0.25000000  1
  Te  Te1  1  0.00000000  0.00000000  0.00000000  1
  Te  Te2  1  0.37500000  0.00000000  0.25000000  1
  Te  Te3  1  0.25000000  0.25000000  0.25000000  1
  Te  Te4  1  0.00000000  0.25000000  0.12500000  1
  P  P5  1  0.40274283  0.76406128  0.99195953  1
  P  P6  1  0.20650578  0.75541973  0.12103927  1
  Li  Li7  1  0.49979846  0.07659080  0.17437250  1
  Li  Li8  1  0.05223823  0.18035054  0.85930050  1
