# generated using pymatgen
data_LiF
_symmetry_space_group_name_H-M   'P 1'
_cell_length_a   9.51331064
_cell_length_b   9.51331064
_cell_length_c   7.73123397
_cell_angle_alpha   90.00000000
_cell_angle_beta   90.00000000
_cell_angle_gamma   120.00000000
_symmetry_Int_Tables_number   1
_chemical_formula_structural   LiF
_chemical_formula_sum   'Li16 F16'
_cell_volume   605.95839245
_cell_formula_units_Z   16
loop_
 _symmetry_equiv_pos_site_id
 _symmetry_equiv_pos_as_xyz
  1  'x, y, z'
loop_
 _atom_site_type_symbol
 _atom_site_label
 _atom_site_symmetry_multiplicity
 _atom_site_fract_x
 _atom_site_fract_y
 _atom_site_fract_z
 _atom_site_occupancy
  F  F0  1  0.19654336  -0.00000000  0.72965501  1
  F  F1  1  0.00000000  0.19654336  0.72965501  1
  F  F2  1  0.80345664  0.80345664  0.72965501  1
  F  F3  1  0.19654336  -0.00000000  0.27034499  1
  F  F4  1  0.00000000  0.19654336  0.27034499  1
  F  F5  1  0.80345664  0.80345664  0.27034499  1
  F  F6  1  0.00000000  0.00000000  0.00000000  1
  F  F7  1  0.33333333  0.66666667  0.50000000  1
  F  F8  1  0.66666667  0.33333333  0.50000000  1
  F  F9  1  0.78744322  0.00000000  0.50000000  1
  F  F10  1  0.00000000  0.78744322  0.50000000  1
  F  F11  1  0.21255678  0.21255678  0.50000000  1
  F  F12  1  0.33333333  0.66666667  0.84209321  1
  F  F13  1  0.33333333  0.66666667  0.15790679  1
  F  F14  1  0.66666667  0.33333333  0.15790679  1
  F  F15  1  0.66666667  0.33333333  0.84209321  1
  Li  Li16  1  0.30313310  0.16495872  0.50000000  1
  Li  Li17  1  -0.16495872  0.13817438  0.50000000  1
  Li  Li18  1  -0.13817438  -0.30313310  0.50000000  1
  Li  Li19  1  0.16495872  0.30313310  0.50000000  1
  Li  Li20  1  0.13817438  -0.16495872  0.50000000  1
  Li  Li21  1  -0.30313310  -0.13817438  0.50000000  1
  Li  Li22  1  0.18315069  -0.00000000  0.00000000  1
  Li  Li23  1  0.00000000  0.18315069  0.00000000  1
  Li  Li24  1  0.81684931  0.81684931  -0.00000000  1
  Li  Li25  1  0.90644995  0.00000000  0.22773541  1
  Li  Li26  1  0.00000000  0.90644995  0.22773541  1
  Li  Li27  1  0.09355005  0.09355005  0.22773541  1
  Li  Li28  1  0.90644995  0.00000000  0.77226459  1
  Li  Li29  1  0.00000000  0.90644995  0.77226459  1
  Li  Li30  1  0.09355005  0.09355005  0.77226459  1
  Li  Li31  1  0.00000000  0.00000000  0.50000000  1
