# generated using pymatgen
data_LiF
_symmetry_space_group_name_H-M   'P 1'
_cell_length_a   14.94832300
_cell_length_b   14.94832300
_cell_length_c   4.88282424
_cell_angle_alpha   90.00000000
_cell_angle_beta   90.00000000
_cell_angle_gamma   90.00000000
_symmetry_Int_Tables_number   1
_chemical_formula_structural   LiF
_chemical_formula_sum   'Li64 F64'
_cell_volume   1091.07860256
_cell_formula_units_Z   64
loop_
 _symmetry_equiv_pos_site_id
 _symmetry_equiv_pos_as_xyz
  1  'x, y, z'
loop_
 _atom_site_type_symbol
 _atom_site_label
 _atom_site_symmetry_multiplicity
 _atom_site_fract_x
 _atom_site_fract_y
 _atom_site_fract_z
 _atom_site_occupancy
  F  F0  1  0.00000000  0.00000000  0.64666843  1
  F  F1  1  0.00000000  0.00000000  0.35333157  1
  F  F2  1  0.92186841  0.44453558  0.84509481  1
  F  F3  1  -0.92186841  -0.44453558  0.84509481  1
  F  F4  1  -0.44453558  0.92186841  0.84509481  1
  F  F5  1  0.44453558  -0.92186841  0.84509481  1
  F  F6  1  -0.92186841  0.44453558  -0.84509481  1
  F  F7  1  0.92186841  -0.44453558  -0.84509481  1
  F  F8  1  0.44453558  0.92186841  -0.84509481  1
  F  F9  1  -0.44453558  -0.92186841  -0.84509481  1
  F  F10  1  -0.92186841  -0.44453558  -0.84509481  1
  F  F11  1  0.92186841  0.44453558  -0.84509481  1
  F  F12  1  0.44453558  -0.92186841  -0.84509481  1
  F  F13  1  -0.44453558  0.92186841  -0.84509481  1
  F  F14  1  0.92186841  -0.44453558  0.84509481  1
  F  F15  1  -0.92186841  0.44453558  0.84509481  1
  F  F16  1  -0.44453558  -0.92186841  0.84509481  1
  F  F17  1  0.44453558  0.92186841  0.84509481  1
  F  F18  1  0.31858111  0.57167514  0.19675542  1
  F  F19  1  0.68141889  0.42832486  0.19675542  1
  F  F20  1  0.42832486  0.31858111  0.19675542  1
  F  F21  1  0.57167514  0.68141889  0.19675542  1
  F  F22  1  0.68141889  0.57167514  0.80324458  1
  F  F23  1  0.31858111  0.42832486  0.80324458  1
  F  F24  1  0.57167514  0.31858111  0.80324458  1
  F  F25  1  0.42832486  0.68141889  0.80324458  1
  F  F26  1  0.68141889  0.42832486  0.80324458  1
  F  F27  1  0.31858111  0.57167514  0.80324458  1
  F  F28  1  0.57167514  0.68141889  0.80324458  1
  F  F29  1  0.42832486  0.31858111  0.80324458  1
  F  F30  1  0.31858111  0.42832486  0.19675542  1
  F  F31  1  0.68141889  0.57167514  0.19675542  1
  F  F32  1  0.42832486  0.68141889  0.19675542  1
  F  F33  1  0.57167514  0.31858111  0.19675542  1
  F  F34  1  0.66310866  0.66310866  0.84808662  1
  F  F35  1  0.33689134  0.33689134  0.84808662  1
  F  F36  1  0.33689134  0.66310866  0.84808662  1
  F  F37  1  0.66310866  0.33689134  0.84808662  1
  F  F38  1  0.33689134  0.66310866  0.15191338  1
  F  F39  1  0.66310866  0.33689134  0.15191338  1
  F  F40  1  0.66310866  0.66310866  0.15191338  1
  F  F41  1  0.33689134  0.33689134  0.15191338  1
  F  F42  1  0.96891914  0.52137172  0.08042969  1
  F  F43  1  0.03108086  0.47862828  0.08042969  1
  F  F44  1  0.47862828  0.96891914  0.08042969  1
  F  F45  1  0.52137172  0.03108086  0.08042969  1
  F  F46  1  0.03108086  0.52137172  0.91957031  1
  F  F47  1  0.96891914  0.47862828  0.91957031  1
  F  F48  1  0.52137172  0.96891914  0.91957031  1
  F  F49  1  0.47862828  0.03108086  0.91957031  1
  F  F50  1  0.03108086  0.47862828  0.91957031  1
  F  F51  1  0.96891914  0.52137172  0.91957031  1
  F  F52  1  0.52137172  0.03108086  0.91957031  1
  F  F53  1  0.47862828  0.96891914  0.91957031  1
  F  F54  1  0.96891914  0.47862828  0.08042969  1
  F  F55  1  0.03108086  0.52137172  0.08042969  1
  F  F56  1  0.47862828  0.03108086  0.08042969  1
  F  F57  1  0.52137172  0.96891914  0.08042969  1
  F  F58  1  0.62798942  0.62798942  0.50000000  1
  F  F59  1  0.37201058  0.37201058  0.50000000  1
  F  F60  1  0.37201058  0.62798942  0.50000000  1
  F  F61  1  0.62798942  0.37201058  0.50000000  1
  F  F62  1  0.00000000  0.50000000  0.50000000  1
  F  F63  1  0.50000000  0.00000000  0.50000000  1
  Li  Li64  1  0.92107187  0.60432842  0.00000000  1
  Li  Li65  1  0.07892813  0.39567158  0.00000000  1
  Li  Li66  1  0.39567158  0.92107187  0.00000000  1
  Li  Li67  1  0.60432842  0.07892813  -0.00000000  1
  Li  Li68  1  0.07892813  0.60432842  0.00000000  1
  Li  Li69  1  0.92107187  0.39567158  0.00000000  1
  Li  Li70  1  0.60432842  0.92107187  0.00000000  1
  Li  Li71  1  0.39567158  0.07892813  -0.00000000  1
  Li  Li72  1  0.85822573  0.92828872  0.70738307  1
  Li  Li73  1  0.14177427  0.07171128  0.70738307  1
  Li  Li74  1  0.07171128  0.85822573  0.70738307  1
  Li  Li75  1  0.92828872  0.14177427  0.70738307  1
  Li  Li76  1  0.14177427  0.92828872  0.29261693  1
  Li  Li77  1  0.85822573  0.07171128  0.29261693  1
  Li  Li78  1  0.92828872  0.85822573  0.29261693  1
  Li  Li79  1  0.07171128  0.14177427  0.29261693  1
  Li  Li80  1  0.14177427  0.07171128  0.29261693  1
  Li  Li81  1  0.85822573  0.92828872  0.29261693  1
  Li  Li82  1  0.92828872  0.14177427  0.29261693  1
  Li  Li83  1  0.07171128  0.85822573  0.29261693  1
  Li  Li84  1  0.85822573  0.07171128  0.70738307  1
  Li  Li85  1  0.14177427  0.92828872  0.70738307  1
  Li  Li86  1  0.07171128  0.14177427  0.70738307  1
  Li  Li87  1  0.92828872  0.85822573  0.70738307  1
  Li  Li88  1  0.87608182  0.33725853  0.80632030  1
  Li  Li89  1  0.12391818  0.66274147  0.80632030  1
  Li  Li90  1  0.66274147  0.87608182  0.80632030  1
  Li  Li91  1  0.33725853  0.12391818  0.80632030  1
  Li  Li92  1  0.12391818  0.33725853  0.19367970  1
  Li  Li93  1  0.87608182  0.66274147  0.19367970  1
  Li  Li94  1  0.33725853  0.87608182  0.19367970  1
  Li  Li95  1  0.66274147  0.12391818  0.19367970  1
  Li  Li96  1  0.12391818  0.66274147  0.19367970  1
  Li  Li97  1  0.87608182  0.33725853  0.19367970  1
  Li  Li98  1  0.33725853  0.12391818  0.19367970  1
  Li  Li99  1  0.66274147  0.87608182  0.19367970  1
  Li  Li100  1  0.87608182  0.66274147  0.80632030  1
  Li  Li101  1  0.12391818  0.33725853  0.80632030  1
  Li  Li102  1  0.66274147  0.12391818  0.80632030  1
  Li  Li103  1  0.33725853  0.87608182  0.80632030  1
  Li  Li104  1  0.22214366  0.00000000  0.75118100  1
  Li  Li105  1  0.77785634  0.00000000  0.75118100  1
  Li  Li106  1  0.00000000  0.22214366  0.75118100  1
  Li  Li107  1  0.00000000  0.77785634  0.75118100  1
  Li  Li108  1  0.77785634  0.00000000  0.24881900  1
  Li  Li109  1  0.22214366  0.00000000  0.24881900  1
  Li  Li110  1  0.00000000  0.22214366  0.24881900  1
  Li  Li111  1  0.00000000  0.77785634  0.24881900  1
  Li  Li112  1  0.25900183  0.35169864  0.00000000  1
  Li  Li113  1  0.74099817  0.64830136  0.00000000  1
  Li  Li114  1  0.64830136  0.25900183  0.00000000  1
  Li  Li115  1  0.35169864  0.74099817  0.00000000  1
  Li  Li116  1  0.74099817  0.35169864  0.00000000  1
  Li  Li117  1  0.25900183  0.64830136  0.00000000  1
  Li  Li118  1  0.35169864  0.25900183  0.00000000  1
  Li  Li119  1  0.64830136  0.74099817  0.00000000  1
  Li  Li120  1  0.68671595  0.00000000  0.00000000  1
  Li  Li121  1  0.31328405  0.00000000  0.00000000  1
  Li  Li122  1  0.00000000  0.68671595  0.00000000  1
  Li  Li123  1  0.00000000  0.31328405  0.00000000  1
  Li  Li124  1  0.33874134  0.50000000  0.00000000  1
  Li  Li125  1  0.66125866  0.50000000  -0.00000000  1
  Li  Li126  1  0.50000000  0.33874134  -0.00000000  1
  Li  Li127  1  0.50000000  0.66125866  -0.00000000  1
