# generated using pymatgen
data_LiF
_symmetry_space_group_name_H-M   'P 1'
_cell_length_a   10.35694545
_cell_length_b   10.35694545
_cell_length_c   11.77505803
_cell_angle_alpha   90.00000000
_cell_angle_beta   90.00000000
_cell_angle_gamma   120.00000000
_symmetry_Int_Tables_number   1
_chemical_formula_structural   LiF
_chemical_formula_sum   'Li31 F31'
_cell_volume   1093.84822216
_cell_formula_units_Z   31
loop_
 _symmetry_equiv_pos_site_id
 _symmetry_equiv_pos_as_xyz
  1  'x, y, z'
loop_
 _atom_site_type_symbol
 _atom_site_label
 _atom_site_symmetry_multiplicity
 _atom_site_fract_x
 _atom_site_fract_y
 _atom_site_fract_z
 _atom_site_occupancy
  F  F0  1  0.08435974  0.39898681  0.03300827  1
  F  F1  1  0.60101319  0.68537293  0.03300827  1
  F  F2  1  0.31462707  0.91564026  0.03300827  1
  F  F3  1  0.60101319  0.91564026  0.96699173  1
  F  F4  1  0.31462707  0.39898681  0.96699173  1
  F  F5  1  0.08435974  0.68537293  0.96699173  1
  F  F6  1  0.21455177  0.20879331  0.39409818  1
  F  F7  1  0.79120669  0.00575846  0.39409818  1
  F  F8  1  0.99424154  0.78544823  0.39409818  1
  F  F9  1  0.79120669  0.78544823  0.60590182  1
  F  F10  1  0.99424154  0.20879331  0.60590182  1
  F  F11  1  0.21455177  0.00575846  0.60590182  1
  F  F12  1  0.88780841  0.11219159  0.00000000  1
  F  F13  1  0.88780841  0.77561682  0.00000000  1
  F  F14  1  0.22438318  0.11219159  0.00000000  1
  F  F15  1  0.67760655  0.70337754  0.52657171  1
  F  F16  1  0.29662246  0.97422901  0.52657171  1
  F  F17  1  0.02577099  0.32239345  0.52657171  1
  F  F18  1  0.29662246  0.32239345  0.47342829  1
  F  F19  1  0.02577099  0.70337754  0.47342829  1
  F  F20  1  0.67760655  0.97422901  0.47342829  1
  F  F21  1  0.96367670  0.03632330  0.00000000  1
  F  F22  1  0.96367670  0.92735340  0.00000000  1
  F  F23  1  0.07264660  0.03632330  0.00000000  1
  F  F24  1  0.90267896  0.72885120  0.09868539  1
  F  F25  1  0.27114880  0.17382775  0.09868539  1
  F  F26  1  0.82617225  0.09732104  0.09868539  1
  F  F27  1  0.27114880  0.09732104  0.90131461  1
  F  F28  1  0.82617225  0.72885120  0.90131461  1
  F  F29  1  0.90267896  0.17382775  0.90131461  1
  F  F30  1  0.66666667  0.33333333  0.50000000  1
  Li  Li31  1  0.13945293  0.86054707  0.00000000  1
  Li  Li32  1  0.13945293  0.27890585  0.00000000  1
  Li  Li33  1  0.72109415  0.86054707  0.00000000  1
  Li  Li34  1  0.35014705  0.48503236  0.81223777  1
  Li  Li35  1  -0.48503236  -0.13488531  0.81223777  1
  Li  Li36  1  0.13488531  -0.35014705  0.81223777  1
  Li  Li37  1  -0.48503236  -0.35014705  -0.81223777  1
  Li  Li38  1  0.13488531  0.48503236  -0.81223777  1
  Li  Li39  1  0.35014705  -0.13488531  -0.81223777  1
  Li  Li40  1  0.06188650  0.09634076  0.15736255  1
  Li  Li41  1  0.90365924  0.96554574  0.15736255  1
  Li  Li42  1  0.03445426  0.93811350  0.15736255  1
  Li  Li43  1  0.90365924  0.93811350  0.84263745  1
  Li  Li44  1  0.03445426  0.09634076  0.84263745  1
  Li  Li45  1  0.06188650  0.96554574  0.84263745  1
  Li  Li46  1  0.00000000  0.00000000  0.39599772  1
  Li  Li47  1  0.00000000  0.00000000  0.60400228  1
  Li  Li48  1  0.77914356  0.56908335  0.74672068  1
  Li  Li49  1  0.43091665  0.21006020  0.74672068  1
  Li  Li50  1  0.78993980  0.22085644  0.74672068  1
  Li  Li51  1  0.43091665  0.22085644  0.25327932  1
  Li  Li52  1  0.78993980  0.56908335  0.25327932  1
  Li  Li53  1  0.77914356  0.21006020  0.25327932  1
  Li  Li54  1  0.93484829  0.82705154  0.33026532  1
  Li  Li55  1  0.17294846  0.10779675  0.33026532  1
  Li  Li56  1  0.89220325  0.06515171  0.33026532  1
  Li  Li57  1  0.17294846  0.06515171  0.66973468  1
  Li  Li58  1  0.89220325  0.82705154  0.66973468  1
  Li  Li59  1  0.93484829  0.10779675  0.66973468  1
  Li  Li60  1  0.33333333  0.66666667  0.50000000  1
  Li  Li61  1  0.33333333  0.66666667  0.00000000  1
