# generated using pymatgen
data_LiF
_symmetry_space_group_name_H-M   'P 1'
_cell_length_a   8.67434193
_cell_length_b   7.31439708
_cell_length_c   4.96716483
_cell_angle_alpha   90.00000000
_cell_angle_beta   90.00000000
_cell_angle_gamma   90.00000000
_symmetry_Int_Tables_number   1
_chemical_formula_structural   LiF
_chemical_formula_sum   'Li16 F16'
_cell_volume   315.15459406
_cell_formula_units_Z   16
loop_
 _symmetry_equiv_pos_site_id
 _symmetry_equiv_pos_as_xyz
  1  'x, y, z'
loop_
 _atom_site_type_symbol
 _atom_site_label
 _atom_site_symmetry_multiplicity
 _atom_site_fract_x
 _atom_site_fract_y
 _atom_site_fract_z
 _atom_site_occupancy
  F  F0  1  0.12500000  0.12500000  0.02427151  1
  F  F1  1  0.62500000  0.12500000  0.72572849  1
  F  F2  1  0.87500000  0.87500000  -0.02427151  1
  F  F3  1  0.37500000  0.87500000  0.27427151  1
  F  F4  1  0.12500000  0.62500000  0.52427151  1
  F  F5  1  0.62500000  0.62500000  1.22572849  1
  F  F6  1  0.87500000  1.37500000  0.47572849  1
  F  F7  1  0.37500000  1.37500000  0.77427151  1
  F  F8  1  0.62500000  0.12500000  0.52427151  1
  F  F9  1  1.12500000  0.12500000  1.22572849  1
  F  F10  1  1.37500000  0.87500000  0.47572849  1
  F  F11  1  0.87500000  0.87500000  0.77427151  1
  F  F12  1  0.62500000  0.62500000  0.02427151  1
  F  F13  1  1.12500000  0.62500000  0.72572849  1
  F  F14  1  1.37500000  1.37500000  -0.02427151  1
  F  F15  1  0.87500000  1.37500000  0.27427151  1
  Li  Li16  1  0.12500000  0.97780240  0.12500000  1
  Li  Li17  1  0.62500000  0.77219760  0.12500000  1
  Li  Li18  1  0.87500000  0.02219760  0.87500000  1
  Li  Li19  1  0.37500000  0.22780240  0.87500000  1
  Li  Li20  1  0.12500000  0.47780240  0.62500000  1
  Li  Li21  1  0.62500000  0.27219760  0.62500000  1
  Li  Li22  1  0.87500000  0.52219760  0.37500000  1
  Li  Li23  1  0.37500000  0.72780240  0.37500000  1
  Li  Li24  1  0.62500000  0.97780240  0.62500000  1
  Li  Li25  1  0.12500000  0.77219760  0.62500000  1
  Li  Li26  1  0.37500000  0.02219760  0.37500000  1
  Li  Li27  1  0.87500000  0.22780240  0.37500000  1
  Li  Li28  1  0.62500000  0.47780240  0.12500000  1
  Li  Li29  1  0.12500000  0.27219760  0.12500000  1
  Li  Li30  1  0.37500000  0.52219760  0.87500000  1
  Li  Li31  1  0.87500000  0.72780240  0.87500000  1
