# generated using pymatgen
data_LiF
_symmetry_space_group_name_H-M   'P 1'
_cell_length_a   13.61399132
_cell_length_b   13.61399132
_cell_length_c   4.12957579
_cell_angle_alpha   90.00000000
_cell_angle_beta   90.00000000
_cell_angle_gamma   90.00000000
_symmetry_Int_Tables_number   1
_chemical_formula_structural   LiF
_chemical_formula_sum   'Li36 F36'
_cell_volume   765.37871332
_cell_formula_units_Z   36
loop_
 _symmetry_equiv_pos_site_id
 _symmetry_equiv_pos_as_xyz
  1  'x, y, z'
loop_
 _atom_site_type_symbol
 _atom_site_label
 _atom_site_symmetry_multiplicity
 _atom_site_fract_x
 _atom_site_fract_y
 _atom_site_fract_z
 _atom_site_occupancy
  F  F0  1  0.63121689  0.10091069  0.83823409  1
  F  F1  1  -0.13121689  -0.10091069  1.33823409  1
  F  F2  1  0.14908931  1.38121689  1.08823409  1
  F  F3  1  0.35091069  -0.38121689  1.58823409  1
  F  F4  1  -0.13121689  0.10091069  -0.33823409  1
  F  F5  1  0.63121689  -0.10091069  -0.83823409  1
  F  F6  1  0.35091069  1.38121689  -0.58823409  1
  F  F7  1  0.14908931  -0.38121689  -0.08823409  1
  F  F8  1  -0.63121689  -0.10091069  -0.83823409  1
  F  F9  1  1.13121689  0.10091069  -0.33823409  1
  F  F10  1  0.85091069  -0.38121689  -0.08823409  1
  F  F11  1  0.64908931  1.38121689  -0.58823409  1
  F  F12  1  1.13121689  -0.10091069  1.33823409  1
  F  F13  1  -0.63121689  0.10091069  0.83823409  1
  F  F14  1  0.64908931  -0.38121689  1.58823409  1
  F  F15  1  0.85091069  1.38121689  1.08823409  1
  F  F16  1  1.13121689  0.60091069  1.33823409  1
  F  F17  1  0.36878311  0.39908931  1.83823409  1
  F  F18  1  0.64908931  1.88121689  1.58823409  1
  F  F19  1  0.85091069  0.11878311  2.08823409  1
  F  F20  1  0.36878311  0.60091069  0.16176591  1
  F  F21  1  1.13121689  0.39908931  -0.33823409  1
  F  F22  1  0.85091069  1.88121689  -0.08823409  1
  F  F23  1  0.64908931  0.11878311  0.41176591  1
  F  F24  1  -0.13121689  0.39908931  -0.33823409  1
  F  F25  1  1.63121689  0.60091069  0.16176591  1
  F  F26  1  1.35091069  0.11878311  0.41176591  1
  F  F27  1  1.14908931  1.88121689  -0.08823409  1
  F  F28  1  1.63121689  0.39908931  1.83823409  1
  F  F29  1  -0.13121689  0.60091069  1.33823409  1
  F  F30  1  1.14908931  0.11878311  2.08823409  1
  F  F31  1  1.35091069  1.88121689  1.58823409  1
  F  F32  1  0.00000000  0.75000000  0.12500000  1
  F  F33  1  0.50000000  0.75000000  0.37500000  1
  F  F34  1  0.50000000  0.25000000  0.62500000  1
  F  F35  1  0.00000000  0.25000000  0.87500000  1
  Li  Li36  1  0.00000000  0.89228713  0.38328681  1
  Li  Li37  1  0.50000000  0.10771287  0.88328681  1
  Li  Li38  1  0.35771287  0.75000000  0.63328681  1
  Li  Li39  1  0.14228713  0.25000000  0.13328681  1
  Li  Li40  1  0.50000000  0.89228713  0.11671319  1
  Li  Li41  1  0.00000000  0.10771287  0.61671319  1
  Li  Li42  1  0.14228713  0.75000000  0.86671319  1
  Li  Li43  1  0.35771287  0.25000000  0.36671319  1
  Li  Li44  1  0.50000000  0.39228713  0.88328681  1
  Li  Li45  1  0.00000000  0.60771287  0.38328681  1
  Li  Li46  1  0.85771287  0.25000000  0.13328681  1
  Li  Li47  1  0.64228713  0.75000000  0.63328681  1
  Li  Li48  1  0.00000000  0.39228713  0.61671319  1
  Li  Li49  1  0.50000000  0.60771287  0.11671319  1
  Li  Li50  1  0.64228713  0.25000000  0.36671319  1
  Li  Li51  1  0.85771287  0.75000000  0.86671319  1
  Li  Li52  1  0.00000000  0.25000000  0.37500000  1
  Li  Li53  1  0.00000000  0.75000000  0.62500000  1
  Li  Li54  1  0.50000000  0.75000000  0.87500000  1
  Li  Li55  1  0.50000000  0.25000000  0.12500000  1
  Li  Li56  1  0.28953084  0.53953084  0.87500000  1
  Li  Li57  1  0.21046916  0.46046916  0.37500000  1
  Li  Li58  1  0.71046916  0.03953084  0.12500000  1
  Li  Li59  1  0.78953084  0.96046916  0.62500000  1
  Li  Li60  1  0.71046916  0.46046916  0.12500000  1
  Li  Li61  1  0.78953084  0.53953084  0.62500000  1
  Li  Li62  1  0.28953084  0.96046916  0.87500000  1
  Li  Li63  1  0.21046916  0.03953084  0.37500000  1
  Li  Li64  1  0.78953084  0.03953084  0.37500000  1
  Li  Li65  1  0.71046916  0.96046916  0.87500000  1
  Li  Li66  1  0.21046916  0.53953084  0.62500000  1
  Li  Li67  1  0.28953084  0.46046916  0.12500000  1
  Li  Li68  1  0.21046916  0.96046916  0.62500000  1
  Li  Li69  1  0.28953084  0.03953084  0.12500000  1
  Li  Li70  1  0.78953084  0.46046916  0.37500000  1
  Li  Li71  1  0.71046916  0.53953084  0.87500000  1
