# generated using pymatgen
data_LiF
_symmetry_space_group_name_H-M   'P 1'
_cell_length_a   13.19088502
_cell_length_b   13.19088502
_cell_length_c   6.02065929
_cell_angle_alpha   90.00000000
_cell_angle_beta   90.00000000
_cell_angle_gamma   120.00000000
_symmetry_Int_Tables_number   1
_chemical_formula_structural   LiF
_chemical_formula_sum   'Li28 F28'
_cell_volume   907.24075786
_cell_formula_units_Z   28
loop_
 _symmetry_equiv_pos_site_id
 _symmetry_equiv_pos_as_xyz
  1  'x, y, z'
loop_
 _atom_site_type_symbol
 _atom_site_label
 _atom_site_symmetry_multiplicity
 _atom_site_fract_x
 _atom_site_fract_y
 _atom_site_fract_z
 _atom_site_occupancy
  F  F0  1  0.33333333  0.66666667  0.25000000  1
  F  F1  1  0.66666667  0.33333333  0.75000000  1
  F  F2  1  0.00627329  0.86379485  0.34861405  1
  F  F3  1  -0.86379485  -0.85752156  0.34861405  1
  F  F4  1  0.85752156  -0.00627329  0.34861405  1
  F  F5  1  -0.00627329  -0.86379485  0.84861405  1
  F  F6  1  0.86379485  0.85752156  0.84861405  1
  F  F7  1  -0.85752156  0.00627329  0.84861405  1
  F  F8  1  -0.00627329  -0.86379485  -0.34861405  1
  F  F9  1  0.86379485  0.85752156  -0.34861405  1
  F  F10  1  -0.85752156  0.00627329  -0.34861405  1
  F  F11  1  0.00627329  0.86379485  0.15138595  1
  F  F12  1  -0.86379485  -0.85752156  0.15138595  1
  F  F13  1  0.85752156  -0.00627329  0.15138595  1
  F  F14  1  0.58287191  0.64405040  0.25000000  1
  F  F15  1  0.35594960  0.93882151  0.25000000  1
  F  F16  1  0.06117849  0.41712809  0.25000000  1
  F  F17  1  0.41712809  0.35594960  0.75000000  1
  F  F18  1  0.64405040  0.06117849  0.75000000  1
  F  F19  1  0.93882151  0.58287191  0.75000000  1
  F  F20  1  0.90687122  0.65830217  0.25000000  1
  F  F21  1  0.34169783  0.24856905  0.25000000  1
  F  F22  1  0.75143095  0.09312878  0.25000000  1
  F  F23  1  0.09312878  0.34169783  0.75000000  1
  F  F24  1  0.65830217  0.75143095  0.75000000  1
  F  F25  1  0.24856905  0.90687122  0.75000000  1
  F  F26  1  0.00000000  0.00000000  0.00000000  1
  F  F27  1  0.00000000  0.00000000  0.50000000  1
  Li  Li28  1  0.50168937  0.65358228  0.25000000  1
  Li  Li29  1  0.34641772  0.84810709  0.25000000  1
  Li  Li30  1  0.15189291  0.49831063  0.25000000  1
  Li  Li31  1  0.49831063  0.34641772  0.75000000  1
  Li  Li32  1  0.65358228  0.15189291  0.75000000  1
  Li  Li33  1  0.84810709  0.50168937  0.75000000  1
  Li  Li34  1  0.90219861  0.57245187  0.25000000  1
  Li  Li35  1  0.42754813  0.32974674  0.25000000  1
  Li  Li36  1  0.67025326  0.09780139  0.25000000  1
  Li  Li37  1  0.09780139  0.42754813  0.75000000  1
  Li  Li38  1  0.57245187  0.67025326  0.75000000  1
  Li  Li39  1  0.32974674  0.90219861  0.75000000  1
  Li  Li40  1  0.88776400  0.09454963  0.99925281  1
  Li  Li41  1  0.90545037  0.79321437  0.99925281  1
  Li  Li42  1  0.20678563  0.11223600  0.99925281  1
  Li  Li43  1  0.11223600  0.90545037  0.49925281  1
  Li  Li44  1  0.09454963  0.20678563  0.49925281  1
  Li  Li45  1  0.79321437  0.88776400  0.49925281  1
  Li  Li46  1  0.11223600  0.90545037  0.00074719  1
  Li  Li47  1  0.09454963  0.20678563  0.00074719  1
  Li  Li48  1  0.79321437  0.88776400  0.00074719  1
  Li  Li49  1  0.88776400  0.09454963  0.50074719  1
  Li  Li50  1  0.90545037  0.79321437  0.50074719  1
  Li  Li51  1  0.20678563  0.11223600  0.50074719  1
  Li  Li52  1  0.00000000  0.00000000  0.25000000  1
  Li  Li53  1  0.00000000  0.00000000  0.75000000  1
  Li  Li54  1  0.66666667  0.33333333  0.25000000  1
  Li  Li55  1  0.33333333  0.66666667  0.75000000  1
