# generated using pymatgen
data_LiF
_symmetry_space_group_name_H-M   'P 1'
_cell_length_a   5.36541980
_cell_length_b   5.36541980
_cell_length_c   17.27211853
_cell_angle_alpha   90.00000000
_cell_angle_beta   90.00000000
_cell_angle_gamma   120.00000000
_symmetry_Int_Tables_number   1
_chemical_formula_structural   LiF
_chemical_formula_sum   'Li19 F19'
_cell_volume   430.60954995
_cell_formula_units_Z   19
loop_
 _symmetry_equiv_pos_site_id
 _symmetry_equiv_pos_as_xyz
  1  'x, y, z'
loop_
 _atom_site_type_symbol
 _atom_site_label
 _atom_site_symmetry_multiplicity
 _atom_site_fract_x
 _atom_site_fract_y
 _atom_site_fract_z
 _atom_site_occupancy
  F  F0  1  0.33333333  0.66666667  0.50000000  1
  F  F1  1  0.16181065  0.83050708  0.27898396  1
  F  F2  1  0.16949292  0.33130356  0.27898396  1
  F  F3  1  0.66869644  0.83818935  0.27898396  1
  F  F4  1  0.16949292  0.83818935  0.72101604  1
  F  F5  1  0.66869644  0.83050708  0.72101604  1
  F  F6  1  0.16181065  0.33130356  0.72101604  1
  F  F7  1  0.03518973  0.14848970  0.69757345  1
  F  F8  1  0.85151030  0.88670002  0.69757345  1
  F  F9  1  0.11329998  0.96481027  0.69757345  1
  F  F10  1  0.85151030  0.96481027  0.30242655  1
  F  F11  1  0.11329998  0.14848970  0.30242655  1
  F  F12  1  0.03518973  0.88670002  0.30242655  1
  F  F13  1  0.60678713  0.70110295  0.12473988  1
  F  F14  1  0.29889705  0.90568418  0.12473988  1
  F  F15  1  0.09431582  0.39321287  0.12473988  1
  F  F16  1  0.29889705  0.39321287  0.87526012  1
  F  F17  1  0.09431582  0.70110295  0.87526012  1
  F  F18  1  0.60678713  0.90568418  0.87526012  1
  Li  Li19  1  0.82314247  0.82703509  0.89237416  1
  Li  Li20  1  -0.82703509  -0.00389263  0.89237416  1
  Li  Li21  1  0.00389263  -0.82314247  0.89237416  1
  Li  Li22  1  -0.82703509  -0.82314247  -0.89237416  1
  Li  Li23  1  0.00389263  0.82703509  -0.89237416  1
  Li  Li24  1  0.82314247  -0.00389263  -0.89237416  1
  Li  Li25  1  0.43878479  0.56121521  0.50000000  1
  Li  Li26  1  0.43878479  0.87756958  0.50000000  1
  Li  Li27  1  0.12243042  0.56121521  0.50000000  1
  Li  Li28  1  0.33333333  0.66666667  0.10270517  1
  Li  Li29  1  0.33333333  0.66666667  0.89729483  1
  Li  Li30  1  0.66666667  0.33333333  0.17108470  1
  Li  Li31  1  0.66666667  0.33333333  0.82891530  1
  Li  Li32  1  0.00000000  0.00000000  0.00000000  1
  Li  Li33  1  0.00000000  0.00000000  0.50000000  1
  Li  Li34  1  0.66666667  0.33333333  -0.00000000  1
  Li  Li35  1  0.25055396  0.74944604  -0.00000000  1
  Li  Li36  1  0.25055396  0.50110791  -0.00000000  1
  Li  Li37  1  0.49889209  0.74944604  -0.00000000  1
