# generated using pymatgen
data_LiF
_symmetry_space_group_name_H-M   'P 1'
_cell_length_a   12.29582528
_cell_length_b   11.20978377
_cell_length_c   13.89521344
_cell_angle_alpha   90.00000000
_cell_angle_beta   90.00000000
_cell_angle_gamma   90.00000000
_symmetry_Int_Tables_number   1
_chemical_formula_structural   LiF
_chemical_formula_sum   'Li64 F64'
_cell_volume   1915.22649443
_cell_formula_units_Z   64
loop_
 _symmetry_equiv_pos_site_id
 _symmetry_equiv_pos_as_xyz
  1  'x, y, z'
loop_
 _atom_site_type_symbol
 _atom_site_label
 _atom_site_symmetry_multiplicity
 _atom_site_fract_x
 _atom_site_fract_y
 _atom_site_fract_z
 _atom_site_occupancy
  F  F0  1  0.51213936  0.57121451  0.78293984  1
  F  F1  1  0.48786064  0.42878549  0.78293984  1
  F  F2  1  0.98786064  0.07121451  0.21706016  1
  F  F3  1  0.01213936  0.92878549  0.21706016  1
  F  F4  1  0.48786064  0.42878549  0.21706016  1
  F  F5  1  0.51213936  0.57121451  0.21706016  1
  F  F6  1  0.01213936  0.92878549  0.78293984  1
  F  F7  1  0.98786064  0.07121451  0.78293984  1
  F  F8  1  0.03821958  0.92200883  0.00000000  1
  F  F9  1  0.96178042  0.07799117  0.00000000  1
  F  F10  1  0.46178042  0.42200883  0.00000000  1
  F  F11  1  0.53821958  0.57799117  0.00000000  1
  F  F12  1  0.00000000  0.00000000  0.00000000  1
  F  F13  1  0.50000000  0.50000000  0.00000000  1
  F  F14  1  0.00000000  0.50000000  0.00000000  1
  F  F15  1  0.50000000  0.00000000  0.00000000  1
  F  F16  1  0.49455692  0.36867016  0.18505844  1
  F  F17  1  0.50544308  0.63132984  0.18505844  1
  F  F18  1  0.00544308  0.86867016  0.81494156  1
  F  F19  1  0.99455692  0.13132984  0.81494156  1
  F  F20  1  0.50544308  0.63132984  0.81494156  1
  F  F21  1  0.49455692  0.36867016  0.81494156  1
  F  F22  1  0.99455692  0.13132984  0.18505844  1
  F  F23  1  0.00544308  0.86867016  0.18505844  1
  F  F24  1  0.73792620  0.13891839  0.25298535  1
  F  F25  1  0.26207380  0.86108161  0.25298535  1
  F  F26  1  0.76207380  0.63891839  0.74701465  1
  F  F27  1  0.23792620  0.36108161  0.74701465  1
  F  F28  1  0.26207380  0.86108161  0.74701465  1
  F  F29  1  0.73792620  0.13891839  0.74701465  1
  F  F30  1  0.23792620  0.36108161  0.25298535  1
  F  F31  1  0.76207380  0.63891839  0.25298535  1
  F  F32  1  0.29559142  0.37651103  0.58178430  1
  F  F33  1  0.70440858  0.62348897  0.58178430  1
  F  F34  1  0.20440858  0.87651103  0.41821570  1
  F  F35  1  0.79559142  0.12348897  0.41821570  1
  F  F36  1  0.70440858  0.62348897  0.41821570  1
  F  F37  1  0.29559142  0.37651103  0.41821570  1
  F  F38  1  0.79559142  0.12348897  0.58178430  1
  F  F39  1  0.20440858  0.87651103  0.58178430  1
  F  F40  1  0.57579632  0.40811105  0.50000000  1
  F  F41  1  0.42420368  0.59188895  0.50000000  1
  F  F42  1  0.92420368  0.90811105  0.50000000  1
  F  F43  1  0.07579632  0.09188895  0.50000000  1
  F  F44  1  0.00000000  0.50000000  0.73996116  1
  F  F45  1  0.50000000  0.00000000  0.26003884  1
  F  F46  1  0.00000000  0.50000000  0.26003884  1
  F  F47  1  0.50000000  0.00000000  0.73996116  1
  F  F48  1  0.10508119  0.98829875  0.42590710  1
  F  F49  1  0.89491881  0.01170125  0.42590710  1
  F  F50  1  0.39491881  0.48829875  0.57409290  1
  F  F51  1  0.60508119  0.51170125  0.57409290  1
  F  F52  1  0.89491881  0.01170125  0.57409290  1
  F  F53  1  0.10508119  0.98829875  0.57409290  1
  F  F54  1  0.60508119  0.51170125  0.42590710  1
  F  F55  1  0.39491881  0.48829875  0.42590710  1
  F  F56  1  0.84222916  0.20760679  0.86992752  1
  F  F57  1  0.15777084  0.79239321  0.86992752  1
  F  F58  1  0.65777084  0.70760679  0.13007248  1
  F  F59  1  0.34222916  0.29239321  0.13007248  1
  F  F60  1  0.15777084  0.79239321  0.13007248  1
  F  F61  1  0.84222916  0.20760679  0.13007248  1
  F  F62  1  0.34222916  0.29239321  0.86992752  1
  F  F63  1  0.65777084  0.70760679  0.86992752  1
  Li  Li64  1  0.00000000  0.00000000  0.50000000  1
  Li  Li65  1  0.50000000  0.50000000  0.50000000  1
  Li  Li66  1  0.00000000  0.50000000  0.50000000  1
  Li  Li67  1  0.50000000  0.00000000  0.50000000  1
  Li  Li68  1  0.73905144  0.78319801  0.00000000  1
  Li  Li69  1  0.26094856  0.21680199  0.00000000  1
  Li  Li70  1  0.76094856  0.28319801  0.00000000  1
  Li  Li71  1  0.23905144  0.71680199  0.00000000  1
  Li  Li72  1  0.59077734  0.00855988  0.20057669  1
  Li  Li73  1  -0.59077734  -0.00855988  0.20057669  1
  Li  Li74  1  -0.09077734  0.50855988  -0.20057669  1
  Li  Li75  1  1.09077734  0.49144012  -0.20057669  1
  Li  Li76  1  -0.59077734  -0.00855988  -0.20057669  1
  Li  Li77  1  0.59077734  0.00855988  -0.20057669  1
  Li  Li78  1  1.09077734  0.49144012  0.20057669  1
  Li  Li79  1  -0.09077734  0.50855988  0.20057669  1
  Li  Li80  1  0.89212600  0.43428051  0.31010377  1
  Li  Li81  1  0.10787400  0.56571949  0.31010377  1
  Li  Li82  1  0.60787400  0.93428051  0.68989623  1
  Li  Li83  1  0.39212600  0.06571949  0.68989623  1
  Li  Li84  1  0.10787400  0.56571949  0.68989623  1
  Li  Li85  1  0.89212600  0.43428051  0.68989623  1
  Li  Li86  1  0.39212600  0.06571949  0.31010377  1
  Li  Li87  1  0.60787400  0.93428051  0.31010377  1
  Li  Li88  1  0.71913276  0.95966782  0.55367593  1
  Li  Li89  1  0.28086724  0.04033218  0.55367593  1
  Li  Li90  1  0.78086724  0.45966782  0.44632407  1
  Li  Li91  1  0.21913276  0.54033218  0.44632407  1
  Li  Li92  1  0.28086724  0.04033218  0.44632407  1
  Li  Li93  1  0.71913276  0.95966782  0.44632407  1
  Li  Li94  1  0.21913276  0.54033218  0.55367593  1
  Li  Li95  1  0.78086724  0.45966782  0.55367593  1
  Li  Li96  1  0.24852467  0.50780886  0.00000000  1
  Li  Li97  1  0.75147533  0.49219114  0.00000000  1
  Li  Li98  1  0.25147533  0.00780886  0.00000000  1
  Li  Li99  1  0.74852467  0.99219114  0.00000000  1
  Li  Li100  1  0.67601903  0.76024297  0.91883288  1
  Li  Li101  1  0.32398097  0.23975703  0.91883288  1
  Li  Li102  1  0.82398097  0.26024297  0.08116712  1
  Li  Li103  1  0.17601903  0.73975703  0.08116712  1
  Li  Li104  1  0.32398097  0.23975703  0.08116712  1
  Li  Li105  1  0.67601903  0.76024297  0.08116712  1
  Li  Li106  1  0.17601903  0.73975703  0.91883288  1
  Li  Li107  1  0.82398097  0.26024297  0.91883288  1
  Li  Li108  1  0.93957692  0.57804323  0.37857083  1
  Li  Li109  1  0.06042308  0.42195677  0.37857083  1
  Li  Li110  1  0.56042308  0.07804323  0.62142917  1
  Li  Li111  1  0.43957692  0.92195677  0.62142917  1
  Li  Li112  1  0.06042308  0.42195677  0.62142917  1
  Li  Li113  1  0.93957692  0.57804323  0.62142917  1
  Li  Li114  1  0.43957692  0.92195677  0.37857083  1
  Li  Li115  1  0.56042308  0.07804323  0.37857083  1
  Li  Li116  1  0.36426235  0.54921349  0.68145875  1
  Li  Li117  1  0.63573765  0.45078651  0.68145875  1
  Li  Li118  1  0.13573765  0.04921349  0.31854125  1
  Li  Li119  1  0.86426235  0.95078651  0.31854125  1
  Li  Li120  1  0.63573765  0.45078651  0.31854125  1
  Li  Li121  1  0.36426235  0.54921349  0.31854125  1
  Li  Li122  1  0.86426235  0.95078651  0.68145875  1
  Li  Li123  1  0.13573765  0.04921349  0.68145875  1
  Li  Li124  1  0.00000000  0.00000000  0.74241891  1
  Li  Li125  1  0.50000000  0.50000000  0.25758109  1
  Li  Li126  1  0.00000000  0.00000000  0.25758109  1
  Li  Li127  1  0.50000000  0.50000000  0.74241891  1
