# generated using pymatgen
data_LiF
_symmetry_space_group_name_H-M   'P 1'
_cell_length_a   8.02803082
_cell_length_b   6.48691086
_cell_length_c   6.36520625
_cell_angle_alpha   90.00000000
_cell_angle_beta   90.00000000
_cell_angle_gamma   90.00000000
_symmetry_Int_Tables_number   1
_chemical_formula_structural   LiF
_chemical_formula_sum   'Li10 F10'
_cell_volume   331.48161131
_cell_formula_units_Z   10
loop_
 _symmetry_equiv_pos_site_id
 _symmetry_equiv_pos_as_xyz
  1  'x, y, z'
loop_
 _atom_site_type_symbol
 _atom_site_label
 _atom_site_symmetry_multiplicity
 _atom_site_fract_x
 _atom_site_fract_y
 _atom_site_fract_z
 _atom_site_occupancy
  F  F0  1  0.44925707  0.35130067  0.92666991  1
  F  F1  1  -0.44925707  -0.35130067  0.92666991  1
  F  F2  1  0.05074293  0.85130067  -0.42666991  1
  F  F3  1  0.94925707  0.14869933  -0.42666991  1
  F  F4  1  -0.44925707  -0.35130067  -0.92666991  1
  F  F5  1  0.44925707  0.35130067  -0.92666991  1
  F  F6  1  0.94925707  0.14869933  1.42666991  1
  F  F7  1  0.05074293  0.85130067  1.42666991  1
  F  F8  1  0.00000000  0.00000000  0.50000000  1
  F  F9  1  0.50000000  0.50000000  0.00000000  1
  Li  Li10  1  0.00000000  0.00000000  0.00000000  1
  Li  Li11  1  0.50000000  0.50000000  0.50000000  1
  Li  Li12  1  0.91207367  0.15479441  0.25580665  1
  Li  Li13  1  0.08792633  0.84520559  0.25580665  1
  Li  Li14  1  0.58792633  0.65479441  0.24419335  1
  Li  Li15  1  0.41207367  0.34520559  0.24419335  1
  Li  Li16  1  0.08792633  0.84520559  0.74419335  1
  Li  Li17  1  0.91207367  0.15479441  0.74419335  1
  Li  Li18  1  0.41207367  0.34520559  0.75580665  1
  Li  Li19  1  0.58792633  0.65479441  0.75580665  1
