# generated using pymatgen
data_LiF
_symmetry_space_group_name_H-M   'P 1'
_cell_length_a   10.09754989
_cell_length_b   7.68525881
_cell_length_c   11.23581610
_cell_angle_alpha   90.00000000
_cell_angle_beta   90.00000000
_cell_angle_gamma   90.00000000
_symmetry_Int_Tables_number   1
_chemical_formula_structural   LiF
_chemical_formula_sum   'Li24 F24'
_cell_volume   871.92499437
_cell_formula_units_Z   24
loop_
 _symmetry_equiv_pos_site_id
 _symmetry_equiv_pos_as_xyz
  1  'x, y, z'
loop_
 _atom_site_type_symbol
 _atom_site_label
 _atom_site_symmetry_multiplicity
 _atom_site_fract_x
 _atom_site_fract_y
 _atom_site_fract_z
 _atom_site_occupancy
  F  F0  1  0.08799418  0.53882647  0.68983774  1
  F  F1  1  0.41200582  0.46117353  0.18983774  1
  F  F2  1  0.91200582  0.03882647  0.31016226  1
  F  F3  1  0.58799418  0.96117353  0.81016226  1
  F  F4  1  0.91200582  0.46117353  0.31016226  1
  F  F5  1  0.58799418  0.53882647  0.81016226  1
  F  F6  1  0.08799418  0.96117353  0.68983774  1
  F  F7  1  0.41200582  0.03882647  0.18983774  1
  F  F8  1  0.68233847  0.79958731  0.69443358  1
  F  F9  1  0.81766153  0.20041269  0.19443358  1
  F  F10  1  0.31766153  0.29958731  0.30556642  1
  F  F11  1  0.18233847  0.70041269  0.80556642  1
  F  F12  1  0.31766153  0.20041269  0.30556642  1
  F  F13  1  0.18233847  0.79958731  0.80556642  1
  F  F14  1  0.68233847  0.70041269  0.69443358  1
  F  F15  1  0.81766153  0.29958731  0.19443358  1
  F  F16  1  0.78228309  0.99695604  0.67483665  1
  F  F17  1  0.71771691  0.00304396  0.17483665  1
  F  F18  1  0.21771691  0.49695604  0.32516335  1
  F  F19  1  0.28228309  0.50304396  0.82516335  1
  F  F20  1  0.21771691  0.00304396  0.32516335  1
  F  F21  1  0.28228309  0.99695604  0.82516335  1
  F  F22  1  0.78228309  0.50304396  0.67483665  1
  F  F23  1  0.71771691  0.49695604  0.17483665  1
  Li  Li24  1  0.34062847  0.25000000  0.86191968  1
  Li  Li25  1  0.15937153  0.75000000  0.36191968  1
  Li  Li26  1  0.65937153  0.75000000  0.13808032  1
  Li  Li27  1  0.84062847  0.25000000  0.63808032  1
  Li  Li28  1  0.00000000  0.00000000  0.00000000  1
  Li  Li29  1  0.50000000  0.00000000  0.50000000  1
  Li  Li30  1  0.00000000  0.50000000  0.00000000  1
  Li  Li31  1  0.50000000  0.50000000  0.50000000  1
  Li  Li32  1  0.51053412  0.25000000  0.26990500  1
  Li  Li33  1  0.98946588  0.75000000  0.76990500  1
  Li  Li34  1  0.48946588  0.75000000  0.73009500  1
  Li  Li35  1  0.01053412  0.25000000  0.23009500  1
  Li  Li36  1  0.08931396  0.01194414  0.78331913  1
  Li  Li37  1  0.41068604  -0.01194414  1.28331913  1
  Li  Li38  1  -0.08931396  0.51194414  -0.78331913  1
  Li  Li39  1  0.58931396  0.48805586  -0.28331913  1
  Li  Li40  1  -0.08931396  -0.01194414  -0.78331913  1
  Li  Li41  1  0.58931396  0.01194414  -0.28331913  1
  Li  Li42  1  0.08931396  0.48805586  0.78331913  1
  Li  Li43  1  0.41068604  0.51194414  1.28331913  1
  Li  Li44  1  0.51817906  0.25000000  0.89763749  1
  Li  Li45  1  0.98182094  0.75000000  0.39763749  1
  Li  Li46  1  0.48182094  0.75000000  0.10236251  1
  Li  Li47  1  0.01817906  0.25000000  0.60236251  1
