# generated using pymatgen
data_LiF
_symmetry_space_group_name_H-M   'P 1'
_cell_length_a   12.11379170
_cell_length_b   12.11379170
_cell_length_c   12.11379170
_cell_angle_alpha   90.00000000
_cell_angle_beta   90.00000000
_cell_angle_gamma   90.00000000
_symmetry_Int_Tables_number   1
_chemical_formula_structural   LiF
_chemical_formula_sum   'Li64 F64'
_cell_volume   1777.62563600
_cell_formula_units_Z   64
loop_
 _symmetry_equiv_pos_site_id
 _symmetry_equiv_pos_as_xyz
  1  'x, y, z'
loop_
 _atom_site_type_symbol
 _atom_site_label
 _atom_site_symmetry_multiplicity
 _atom_site_fract_x
 _atom_site_fract_y
 _atom_site_fract_z
 _atom_site_occupancy
  F  F0  1  0.55176254  0.44215964  0.90671297  1
  F  F1  1  -0.05176254  -0.44215964  1.40671297  1
  F  F2  1  -0.55176254  0.94215964  -0.40671297  1
  F  F3  1  1.05176254  0.05784036  -0.90671297  1
  F  F4  1  0.90671297  0.55176254  0.44215964  1
  F  F5  1  1.40671297  -0.05176254  -0.44215964  1
  F  F6  1  -0.40671297  -0.55176254  0.94215964  1
  F  F7  1  -0.90671297  1.05176254  0.05784036  1
  F  F8  1  0.44215964  0.90671297  0.55176254  1
  F  F9  1  -0.44215964  1.40671297  -0.05176254  1
  F  F10  1  0.94215964  -0.40671297  -0.55176254  1
  F  F11  1  0.05784036  -0.90671297  1.05176254  1
  F  F12  1  1.19215964  0.80176254  -0.65671297  1
  F  F13  1  0.30784036  0.19823746  -0.15671297  1
  F  F14  1  0.69215964  -0.30176254  1.65671297  1
  F  F15  1  -0.19215964  1.30176254  1.15671297  1
  F  F16  1  1.30176254  1.15671297  -0.19215964  1
  F  F17  1  -0.30176254  1.65671297  0.69215964  1
  F  F18  1  0.19823746  -0.15671297  0.30784036  1
  F  F19  1  0.80176254  -0.65671297  1.19215964  1
  F  F20  1  1.65671297  0.69215964  -0.30176254  1
  F  F21  1  1.15671297  -0.19215964  1.30176254  1
  F  F22  1  -0.65671297  1.19215964  0.80176254  1
  F  F23  1  -0.15671297  0.30784036  0.19823746  1
  F  F24  1  1.05176254  0.94215964  1.40671297  1
  F  F25  1  0.44823746  0.05784036  1.90671297  1
  F  F26  1  -0.05176254  1.44215964  0.09328703  1
  F  F27  1  1.55176254  0.55784036  -0.40671297  1
  F  F28  1  1.40671297  1.05176254  0.94215964  1
  F  F29  1  1.90671297  0.44823746  0.05784036  1
  F  F30  1  0.09328703  -0.05176254  1.44215964  1
  F  F31  1  -0.40671297  1.55176254  0.55784036  1
  F  F32  1  0.94215964  1.40671297  1.05176254  1
  F  F33  1  0.05784036  1.90671297  0.44823746  1
  F  F34  1  1.44215964  0.09328703  -0.05176254  1
  F  F35  1  0.55784036  -0.40671297  1.55176254  1
  F  F36  1  1.69215964  1.30176254  -0.15671297  1
  F  F37  1  0.80784036  0.69823746  0.34328703  1
  F  F38  1  1.19215964  0.19823746  2.15671297  1
  F  F39  1  0.30784036  1.80176254  1.65671297  1
  F  F40  1  1.80176254  1.65671297  0.30784036  1
  F  F41  1  0.19823746  2.15671297  1.19215964  1
  F  F42  1  0.69823746  0.34328703  0.80784036  1
  F  F43  1  1.30176254  -0.15671297  1.69215964  1
  F  F44  1  2.15671297  1.19215964  0.19823746  1
  F  F45  1  1.65671297  0.30784036  1.80176254  1
  F  F46  1  -0.15671297  1.69215964  1.30176254  1
  F  F47  1  0.34328703  0.80784036  0.69823746  1
  F  F48  1  0.87500000  0.87500000  0.87500000  1
  F  F49  1  0.62500000  0.12500000  0.37500000  1
  F  F50  1  0.12500000  0.37500000  0.62500000  1
  F  F51  1  0.37500000  0.62500000  0.12500000  1
  F  F52  1  0.37500000  0.37500000  0.37500000  1
  F  F53  1  0.12500000  0.62500000  0.87500000  1
  F  F54  1  0.62500000  0.87500000  0.12500000  1
  F  F55  1  0.87500000  0.12500000  0.62500000  1
  F  F56  1  0.12500000  0.12500000  0.12500000  1
  F  F57  1  0.37500000  0.87500000  0.62500000  1
  F  F58  1  0.87500000  0.62500000  0.37500000  1
  F  F59  1  0.62500000  0.37500000  0.87500000  1
  F  F60  1  0.62500000  0.62500000  0.62500000  1
  F  F61  1  0.87500000  0.37500000  0.12500000  1
  F  F62  1  0.37500000  0.12500000  0.87500000  1
  F  F63  1  0.12500000  0.87500000  0.37500000  1
  Li  Li64  1  0.76611798  0.90778884  0.07861587  1
  Li  Li65  1  0.73388202  0.09221116  0.57861587  1
  Li  Li66  1  0.23388202  0.40778884  0.42138413  1
  Li  Li67  1  0.26611798  0.59221116  0.92138413  1
  Li  Li68  1  0.07861587  0.76611798  0.90778884  1
  Li  Li69  1  0.57861587  0.73388202  0.09221116  1
  Li  Li70  1  0.42138413  0.23388202  0.40778884  1
  Li  Li71  1  0.92138413  0.26611798  0.59221116  1
  Li  Li72  1  0.90778884  0.07861587  0.76611798  1
  Li  Li73  1  0.09221116  0.57861587  0.73388202  1
  Li  Li74  1  0.40778884  0.42138413  0.23388202  1
  Li  Li75  1  0.59221116  0.92138413  0.26611798  1
  Li  Li76  1  0.65778884  0.01611798  0.17138413  1
  Li  Li77  1  0.84221116  0.98388202  0.67138413  1
  Li  Li78  1  0.15778884  0.48388202  0.82861587  1
  Li  Li79  1  0.34221116  0.51611798  0.32861587  1
  Li  Li80  1  0.51611798  0.32861587  0.34221116  1
  Li  Li81  1  0.48388202  0.82861587  0.15778884  1
  Li  Li82  1  0.98388202  0.67138413  0.84221116  1
  Li  Li83  1  0.01611798  0.17138413  0.65778884  1
  Li  Li84  1  0.82861587  0.15778884  0.48388202  1
  Li  Li85  1  0.32861587  0.34221116  0.51611798  1
  Li  Li86  1  0.17138413  0.65778884  0.01611798  1
  Li  Li87  1  0.67138413  0.84221116  0.98388202  1
  Li  Li88  1  0.26611798  0.40778884  0.57861587  1
  Li  Li89  1  0.23388202  0.59221116  0.07861587  1
  Li  Li90  1  0.73388202  0.90778884  0.92138413  1
  Li  Li91  1  0.76611798  0.09221116  0.42138413  1
  Li  Li92  1  0.57861587  0.26611798  0.40778884  1
  Li  Li93  1  0.07861587  0.23388202  0.59221116  1
  Li  Li94  1  0.92138413  0.73388202  0.90778884  1
  Li  Li95  1  0.42138413  0.76611798  0.09221116  1
  Li  Li96  1  0.40778884  0.57861587  0.26611798  1
  Li  Li97  1  0.59221116  0.07861587  0.23388202  1
  Li  Li98  1  0.90778884  0.92138413  0.73388202  1
  Li  Li99  1  0.09221116  0.42138413  0.76611798  1
  Li  Li100  1  0.15778884  0.51611798  0.67138413  1
  Li  Li101  1  0.34221116  0.48388202  0.17138413  1
  Li  Li102  1  0.65778884  0.98388202  0.32861587  1
  Li  Li103  1  0.84221116  0.01611798  0.82861587  1
  Li  Li104  1  0.01611798  0.82861587  0.84221116  1
  Li  Li105  1  0.98388202  0.32861587  0.65778884  1
  Li  Li106  1  0.48388202  0.17138413  0.34221116  1
  Li  Li107  1  0.51611798  0.67138413  0.15778884  1
  Li  Li108  1  0.32861587  0.65778884  0.98388202  1
  Li  Li109  1  0.82861587  0.84221116  0.01611798  1
  Li  Li110  1  0.67138413  0.15778884  0.51611798  1
  Li  Li111  1  0.17138413  0.34221116  0.48388202  1
  Li  Li112  1  0.28415856  0.28415856  0.28415856  1
  Li  Li113  1  0.21584144  0.71584144  0.78415856  1
  Li  Li114  1  0.71584144  0.78415856  0.21584144  1
  Li  Li115  1  0.78415856  0.21584144  0.71584144  1
  Li  Li116  1  0.03415856  0.53415856  0.96584144  1
  Li  Li117  1  0.46584144  0.46584144  0.46584144  1
  Li  Li118  1  0.53415856  0.96584144  0.03415856  1
  Li  Li119  1  0.96584144  0.03415856  0.53415856  1
  Li  Li120  1  0.78415856  0.78415856  0.78415856  1
  Li  Li121  1  0.71584144  0.21584144  0.28415856  1
  Li  Li122  1  0.21584144  0.28415856  0.71584144  1
  Li  Li123  1  0.28415856  0.71584144  0.21584144  1
  Li  Li124  1  0.53415856  0.03415856  0.46584144  1
  Li  Li125  1  0.96584144  0.96584144  0.96584144  1
  Li  Li126  1  0.03415856  0.46584144  0.53415856  1
  Li  Li127  1  0.46584144  0.53415856  0.03415856  1
