# generated using pymatgen
data_LiF
_symmetry_space_group_name_H-M   'P 1'
_cell_length_a   9.39632016
_cell_length_b   11.47757161
_cell_length_c   10.05099918
_cell_angle_alpha   90.00000000
_cell_angle_beta   90.00000000
_cell_angle_gamma   90.00000000
_symmetry_Int_Tables_number   1
_chemical_formula_structural   LiF
_chemical_formula_sum   'Li38 F38'
_cell_volume   1083.96947941
_cell_formula_units_Z   38
loop_
 _symmetry_equiv_pos_site_id
 _symmetry_equiv_pos_as_xyz
  1  'x, y, z'
loop_
 _atom_site_type_symbol
 _atom_site_label
 _atom_site_symmetry_multiplicity
 _atom_site_fract_x
 _atom_site_fract_y
 _atom_site_fract_z
 _atom_site_occupancy
  F  F0  1  0.40773635  0.10095738  0.03525659  1
  F  F1  1  0.59226365  0.89904262  0.03525659  1
  F  F2  1  0.09226365  0.60095738  0.96474341  1
  F  F3  1  0.90773635  0.39904262  0.96474341  1
  F  F4  1  0.59226365  0.89904262  0.96474341  1
  F  F5  1  0.40773635  0.10095738  0.96474341  1
  F  F6  1  0.90773635  0.39904262  0.03525659  1
  F  F7  1  0.09226365  0.60095738  0.03525659  1
  F  F8  1  0.00000000  0.00000000  0.50000000  1
  F  F9  1  0.50000000  0.50000000  0.50000000  1
  F  F10  1  0.75588868  0.12739228  0.27020443  1
  F  F11  1  0.24411132  0.87260772  0.27020443  1
  F  F12  1  0.74411132  0.62739228  0.72979557  1
  F  F13  1  0.25588868  0.37260772  0.72979557  1
  F  F14  1  0.24411132  0.87260772  0.72979557  1
  F  F15  1  0.75588868  0.12739228  0.72979557  1
  F  F16  1  0.25588868  0.37260772  0.27020443  1
  F  F17  1  0.74411132  0.62739228  0.27020443  1
  F  F18  1  0.18793771  0.19127729  0.93734865  1
  F  F19  1  0.81206229  0.80872271  0.93734865  1
  F  F20  1  0.31206229  0.69127729  0.06265135  1
  F  F21  1  0.68793771  0.30872271  0.06265135  1
  F  F22  1  0.81206229  0.80872271  0.06265135  1
  F  F23  1  0.18793771  0.19127729  0.06265135  1
  F  F24  1  0.68793771  0.30872271  0.93734865  1
  F  F25  1  0.31206229  0.69127729  0.93734865  1
  F  F26  1  0.26093940  0.59079362  0.00000000  1
  F  F27  1  0.73906060  0.40920638  -0.00000000  1
  F  F28  1  0.23906060  0.09079362  -0.00000000  1
  F  F29  1  0.76093940  0.90920638  0.00000000  1
  F  F30  1  0.77009986  0.23300616  0.67987773  1
  F  F31  1  0.22990014  0.76699384  0.67987773  1
  F  F32  1  0.72990014  0.73300616  0.32012227  1
  F  F33  1  0.27009986  0.26699384  0.32012227  1
  F  F34  1  0.22990014  0.76699384  0.32012227  1
  F  F35  1  0.77009986  0.23300616  0.32012227  1
  F  F36  1  0.27009986  0.26699384  0.67987773  1
  F  F37  1  0.72990014  0.73300616  0.67987773  1
  Li  Li38  1  0.00000000  0.00000000  0.86010945  1
  Li  Li39  1  0.50000000  0.50000000  0.13989055  1
  Li  Li40  1  0.00000000  0.00000000  0.13989055  1
  Li  Li41  1  0.50000000  0.50000000  0.86010945  1
  Li  Li42  1  0.51084669  0.16906730  0.10031116  1
  Li  Li43  1  -0.51084669  -0.16906730  0.10031116  1
  Li  Li44  1  -0.01084669  0.66906730  -0.10031116  1
  Li  Li45  1  1.01084669  0.33093270  -0.10031116  1
  Li  Li46  1  -0.51084669  -0.16906730  -0.10031116  1
  Li  Li47  1  0.51084669  0.16906730  -0.10031116  1
  Li  Li48  1  1.01084669  0.33093270  0.10031116  1
  Li  Li49  1  -0.01084669  0.66906730  0.10031116  1
  Li  Li50  1  0.00000000  0.00000000  0.00000000  1
  Li  Li51  1  0.50000000  0.50000000  0.00000000  1
  Li  Li52  1  0.21323618  0.81110510  0.50000000  1
  Li  Li53  1  0.78676382  0.18889490  0.50000000  1
  Li  Li54  1  0.28676382  0.31110510  0.50000000  1
  Li  Li55  1  0.71323618  0.68889490  0.50000000  1
  Li  Li56  1  0.14211333  0.66382406  0.86622331  1
  Li  Li57  1  0.85788667  0.33617594  0.86622331  1
  Li  Li58  1  0.35788667  0.16382406  0.13377669  1
  Li  Li59  1  0.64211333  0.83617594  0.13377669  1
  Li  Li60  1  0.85788667  0.33617594  0.13377669  1
  Li  Li61  1  0.14211333  0.66382406  0.13377669  1
  Li  Li62  1  0.64211333  0.83617594  0.86622331  1
  Li  Li63  1  0.35788667  0.16382406  0.86622331  1
  Li  Li64  1  0.26389663  0.08139844  0.37947461  1
  Li  Li65  1  0.73610337  0.91860156  0.37947461  1
  Li  Li66  1  0.23610337  0.58139844  0.62052539  1
  Li  Li67  1  0.76389663  0.41860156  0.62052539  1
  Li  Li68  1  0.73610337  0.91860156  0.62052539  1
  Li  Li69  1  0.26389663  0.08139844  0.62052539  1
  Li  Li70  1  0.76389663  0.41860156  0.37947461  1
  Li  Li71  1  0.23610337  0.58139844  0.37947461  1
  Li  Li72  1  0.00000000  0.50000000  0.66833657  1
  Li  Li73  1  0.50000000  0.00000000  0.33166343  1
  Li  Li74  1  0.00000000  0.50000000  0.33166343  1
  Li  Li75  1  0.50000000  0.00000000  0.66833657  1
