# generated using pymatgen
data_LiCaF3
_symmetry_space_group_name_H-M   'P 1'
_cell_length_a   16.11176015
_cell_length_b   16.11176015
_cell_length_c   7.28025515
_cell_angle_alpha   90.00000000
_cell_angle_beta   90.00000000
_cell_angle_gamma   120.00000000
_symmetry_Int_Tables_number   1
_chemical_formula_structural   LiCaF3
_chemical_formula_sum   'Li18 Ca18 F54'
_cell_volume   1636.67786092
_cell_formula_units_Z   18
loop_
 _symmetry_equiv_pos_site_id
 _symmetry_equiv_pos_as_xyz
  1  'x, y, z'
loop_
 _atom_site_type_symbol
 _atom_site_label
 _atom_site_symmetry_multiplicity
 _atom_site_fract_x
 _atom_site_fract_y
 _atom_site_fract_z
 _atom_site_occupancy
  Ca  Ca0  1  0.76944421  0.26200284  -0.00000000  1
  Ca  Ca1  1  0.73799716  0.50744136  -0.00000000  1
  Ca  Ca2  1  0.49255864  0.23055579  -0.00000000  1
  Ca  Ca3  1  0.26200284  0.76944421  -0.00000000  1
  Ca  Ca4  1  0.50744136  0.73799716  -0.00000000  1
  Ca  Ca5  1  0.23055579  0.49255864  -0.00000000  1
  Ca  Ca6  1  0.38645607  0.06563468  0.50000000  1
  Ca  Ca7  1  0.93436532  0.32082139  0.50000000  1
  Ca  Ca8  1  0.67917861  0.61354393  0.50000000  1
  Ca  Ca9  1  0.06563468  0.38645607  0.50000000  1
  Ca  Ca10  1  0.32082139  0.93436532  0.50000000  1
  Ca  Ca11  1  0.61354393  0.67917861  0.50000000  1
  Ca  Ca12  1  0.44347108  0.80553039  -0.00000000  1
  Ca  Ca13  1  0.19446961  0.63794069  0.00000000  1
  Ca  Ca14  1  0.36205931  0.55652892  -0.00000000  1
  Ca  Ca15  1  0.80553039  0.44347108  -0.00000000  1
  Ca  Ca16  1  0.63794069  0.19446961  0.00000000  1
  Ca  Ca17  1  0.55652892  0.36205931  -0.00000000  1
  F  F18  1  0.54912856  0.50587472  -0.00000000  1
  F  F19  1  0.49412528  0.04325384  -0.00000000  1
  F  F20  1  0.95674616  0.45087144  -0.00000000  1
  F  F21  1  0.50587472  0.54912856  -0.00000000  1
  F  F22  1  0.04325384  0.49412528  -0.00000000  1
  F  F23  1  0.45087144  0.95674616  -0.00000000  1
  F  F24  1  0.67745503  0.76370726  0.39039972  1
  F  F25  1  -0.76370726  -0.08625223  0.39039972  1
  F  F26  1  0.08625223  -0.67745503  0.39039972  1
  F  F27  1  0.67745503  0.76370726  -0.39039972  1
  F  F28  1  -0.76370726  -0.08625223  -0.39039972  1
  F  F29  1  0.08625223  -0.67745503  -0.39039972  1
  F  F30  1  0.76370726  0.67745503  -0.39039972  1
  F  F31  1  -0.08625223  -0.76370726  -0.39039972  1
  F  F32  1  -0.67745503  0.08625223  -0.39039972  1
  F  F33  1  0.76370726  0.67745503  0.39039972  1
  F  F34  1  -0.08625223  -0.76370726  0.39039972  1
  F  F35  1  -0.67745503  0.08625223  0.39039972  1
  F  F36  1  0.18935176  0.86257258  0.22460763  1
  F  F37  1  0.13742742  0.32677918  0.22460763  1
  F  F38  1  0.67322082  0.81064824  0.22460763  1
  F  F39  1  0.18935176  0.86257258  0.77539237  1
  F  F40  1  0.13742742  0.32677918  0.77539237  1
  F  F41  1  0.67322082  0.81064824  0.77539237  1
  F  F42  1  0.86257258  0.18935176  0.77539237  1
  F  F43  1  0.32677918  0.13742742  0.77539237  1
  F  F44  1  0.81064824  0.67322082  0.77539237  1
  F  F45  1  0.86257258  0.18935176  0.22460763  1
  F  F46  1  0.32677918  0.13742742  0.22460763  1
  F  F47  1  0.81064824  0.67322082  0.22460763  1
  F  F48  1  0.75043550  0.85626176  0.34030580  1
  F  F49  1  0.14373824  0.89417374  0.34030580  1
  F  F50  1  0.10582626  0.24956450  0.34030580  1
  F  F51  1  0.75043550  0.85626176  0.65969420  1
  F  F52  1  0.14373824  0.89417374  0.65969420  1
  F  F53  1  0.10582626  0.24956450  0.65969420  1
  F  F54  1  0.85626176  0.75043550  0.65969420  1
  F  F55  1  0.89417374  0.14373824  0.65969420  1
  F  F56  1  0.24956450  0.10582626  0.65969420  1
  F  F57  1  0.85626176  0.75043550  0.34030580  1
  F  F58  1  0.89417374  0.14373824  0.34030580  1
  F  F59  1  0.24956450  0.10582626  0.34030580  1
  F  F60  1  0.63588669  0.97774337  0.67046902  1
  F  F61  1  0.02225663  0.65814333  0.67046902  1
  F  F62  1  0.34185667  0.36411331  0.67046902  1
  F  F63  1  0.63588669  0.97774337  0.32953098  1
  F  F64  1  0.02225663  0.65814333  0.32953098  1
  F  F65  1  0.34185667  0.36411331  0.32953098  1
  F  F66  1  0.97774337  0.63588669  0.32953098  1
  F  F67  1  0.65814333  0.02225663  0.32953098  1
  F  F68  1  0.36411331  0.34185667  0.32953098  1
  F  F69  1  0.97774337  0.63588669  0.67046902  1
  F  F70  1  0.65814333  0.02225663  0.67046902  1
  F  F71  1  0.36411331  0.34185667  0.67046902  1
  Li  Li72  1  0.33333333  0.66666667  0.90181458  1
  Li  Li73  1  0.33333333  0.66666667  0.09818542  1
  Li  Li74  1  0.66666667  0.33333333  0.09818542  1
  Li  Li75  1  0.66666667  0.33333333  0.90181458  1
  Li  Li76  1  0.00000000  0.00000000  0.00000000  1
  Li  Li77  1  0.47737144  0.68711421  0.50000000  1
  Li  Li78  1  0.31288579  0.79025723  0.50000000  1
  Li  Li79  1  0.20974277  0.52262856  0.50000000  1
  Li  Li80  1  0.68711421  0.47737144  0.50000000  1
  Li  Li81  1  0.79025723  0.31288579  0.50000000  1
  Li  Li82  1  0.52262856  0.20974277  0.50000000  1
  Li  Li83  1  0.00000000  0.00000000  0.31061184  1
  Li  Li84  1  0.00000000  0.00000000  0.68938816  1
  Li  Li85  1  0.00000000  0.00000000  0.50000000  1
  Li  Li86  1  0.33333333  0.66666667  0.67477469  1
  Li  Li87  1  0.33333333  0.66666667  0.32522531  1
  Li  Li88  1  0.66666667  0.33333333  0.32522531  1
  Li  Li89  1  0.66666667  0.33333333  0.67477469  1
