# generated using pymatgen
data_Li3Y2P3Se
_symmetry_space_group_name_H-M   'P 1'
_cell_length_a   5.86275722
_cell_length_b   6.09004614
_cell_length_c   7.12538290
_cell_angle_alpha   92.25904099
_cell_angle_beta   95.42013573
_cell_angle_gamma   99.67789123
_symmetry_Int_Tables_number   1
_chemical_formula_structural   Li3Y2P3Se
_chemical_formula_sum   'Li3 Y2 P3 Se1'
_cell_volume   249.26936237
_cell_formula_units_Z   1
loop_
 _symmetry_equiv_pos_site_id
 _symmetry_equiv_pos_as_xyz
  1  'x, y, z'
loop_
 _atom_site_type_symbol
 _atom_site_label
 _atom_site_symmetry_multiplicity
 _atom_site_fract_x
 _atom_site_fract_y
 _atom_site_fract_z
 _atom_site_occupancy
  Se  Se0  1  0.12500000  0.12500000  0.12500000  1
  P  P1  1  0.50000000  0.50000000  0.50000000  1
  P  P2  1  0.25000000  0.25000000  0.25000000  1
  P  P3  1  0.75000000  0.75000000  0.75000000  1
  Li  Li4  1  0.45914430  0.23487910  0.20920953  1
  Li  Li5  1  0.71464022  0.54355336  0.61112106  1
  Li  Li6  1  0.15277211  0.84939126  0.34215896  1
  Y  Y7  1  0.45957472  0.30161298  0.29265616  1
  Y  Y8  1  0.95688150  0.02520532  0.39082904  1
