# generated using pymatgen
data_LiY2Te4MoP2
_symmetry_space_group_name_H-M   'P 1'
_cell_length_a   5.01515596
_cell_length_b   5.17270790
_cell_length_c   7.07677459
_cell_angle_alpha   94.75427157
_cell_angle_beta   99.85388046
_cell_angle_gamma   108.31198954
_symmetry_Int_Tables_number   1
_chemical_formula_structural   LiY2Te4MoP2
_chemical_formula_sum   'Li1 Y2 Te4 Mo1 P2'
_cell_volume   169.87476390
_cell_formula_units_Z   1
loop_
 _symmetry_equiv_pos_site_id
 _symmetry_equiv_pos_as_xyz
  1  'x, y, z'
loop_
 _atom_site_type_symbol
 _atom_site_label
 _atom_site_symmetry_multiplicity
 _atom_site_fract_x
 _atom_site_fract_y
 _atom_site_fract_z
 _atom_site_occupancy
  Te  Te0  1  0.00000000  0.00000000  0.00000000  1
  Te  Te1  1  0.50000000  0.50000000  0.50000000  1
  Te  Te2  1  0.25000000  0.25000000  0.25000000  1
  Te  Te3  1  0.75000000  0.25000000  0.00000000  1
  Y  Y4  1  0.25000000  0.75000000  0.50000000  1
  Y  Y5  1  0.03986189  0.88599298  0.88982692  1
  P  P6  1  0.40082548  0.79674481  0.67187761  1
  P  P7  1  0.31214485  0.17687588  0.01268911  1
  Mo  Mo8  1  0.37282275  0.49811461  0.39813951  1
  Li  Li9  1  0.43806191  0.69849473  0.20776477  1
