# generated using pymatgen
data_Li2Y2As4P3Se
_symmetry_space_group_name_H-M   'P 1'
_cell_length_a   4.51971622
_cell_length_b   4.75252800
_cell_length_c   6.77105998
_cell_angle_alpha   95.06797998
_cell_angle_beta   101.31688014
_cell_angle_gamma   110.69399242
_symmetry_Int_Tables_number   1
_chemical_formula_structural   Li2Y2As4P3Se
_chemical_formula_sum   'Li2 Y2 As4 P3 Se1'
_cell_volume   131.42772526
_cell_formula_units_Z   1
loop_
 _symmetry_equiv_pos_site_id
 _symmetry_equiv_pos_as_xyz
  1  'x, y, z'
loop_
 _atom_site_type_symbol
 _atom_site_label
 _atom_site_symmetry_multiplicity
 _atom_site_fract_x
 _atom_site_fract_y
 _atom_site_fract_z
 _atom_site_occupancy
  Se  Se0  1  0.12500000  0.00000000  0.25000000  1
  P  P1  1  0.00000000  0.00000000  0.00000000  1
  P  P2  1  0.37500000  0.00000000  0.25000000  1
  P  P3  1  0.25000000  0.25000000  0.25000000  1
  As  As4  1  0.00000000  0.25000000  0.12500000  1
  As  As5  1  0.03982553  0.54254247  0.09276380  1
  As  As6  1  0.04988628  0.11955535  0.43967515  1
  As  As7  1  0.68262988  0.43827323  0.18670531  1
  Li  Li8  1  0.44360166  0.06666085  0.66589714  1
  Li  Li9  1  0.08487329  0.65688025  0.96241054  1
  Y  Y10  1  0.80494145  0.45955230  0.81950094  1
  Y  Y11  1  0.10114384  0.31506225  0.98071205  1
