# generated using pymatgen
data_Li4YScF
_symmetry_space_group_name_H-M   'P 1'
_cell_length_a   3.28723341
_cell_length_b   3.13773432
_cell_length_c   5.69017244
_cell_angle_alpha   111.33205131
_cell_angle_beta   102.61488902
_cell_angle_gamma   107.41373247
_symmetry_Int_Tables_number   1
_chemical_formula_structural   Li4YScF
_chemical_formula_sum   'Li4 Y1 Sc1 F1'
_cell_volume   48.49951909
_cell_formula_units_Z   1
loop_
 _symmetry_equiv_pos_site_id
 _symmetry_equiv_pos_as_xyz
  1  'x, y, z'
loop_
 _atom_site_type_symbol
 _atom_site_label
 _atom_site_symmetry_multiplicity
 _atom_site_fract_x
 _atom_site_fract_y
 _atom_site_fract_z
 _atom_site_occupancy
  F  F0  1  0.00000000  0.00000000  0.00000000  1
  Li  Li1  1  0.50000000  0.50000000  0.50000000  1
  Li  Li2  1  0.25000000  0.25000000  0.25000000  1
  Li  Li3  1  0.75000000  0.25000000  0.00000000  1
  Li  Li4  1  0.25000000  0.75000000  0.50000000  1
  Sc  Sc5  1  0.36077237  0.34378740  0.84114193  1
  Y  Y6  1  0.89518924  0.08348154  0.24547566  1
