# generated using pymatgen
data_LiF
_symmetry_space_group_name_H-M   'P 1'
_cell_length_a   6.04079442
_cell_length_b   20.95280722
_cell_length_c   11.60936089
_cell_angle_alpha   90.00000000
_cell_angle_beta   90.00000000
_cell_angle_gamma   90.00000000
_symmetry_Int_Tables_number   1
_chemical_formula_structural   LiF
_chemical_formula_sum   'Li48 F48'
_cell_volume   1469.41539310
_cell_formula_units_Z   48
loop_
 _symmetry_equiv_pos_site_id
 _symmetry_equiv_pos_as_xyz
  1  'x, y, z'
loop_
 _atom_site_type_symbol
 _atom_site_label
 _atom_site_symmetry_multiplicity
 _atom_site_fract_x
 _atom_site_fract_y
 _atom_site_fract_z
 _atom_site_occupancy
  F  F0  1  0.11790168  0.38568744  0.42987215  1
  F  F1  1  0.38209832  0.61431256  0.92987215  1
  F  F2  1  0.88209832  0.88568744  0.57012785  1
  F  F3  1  0.61790168  0.11431256  0.07012785  1
  F  F4  1  0.88209832  0.61431256  0.57012785  1
  F  F5  1  0.61790168  0.38568744  0.07012785  1
  F  F6  1  0.11790168  0.11431256  0.42987215  1
  F  F7  1  0.38209832  0.88568744  0.92987215  1
  F  F8  1  0.87525906  0.67121439  0.68993162  1
  F  F9  1  0.62474094  0.32878561  0.18993162  1
  F  F10  1  0.12474094  0.17121439  0.31006838  1
  F  F11  1  0.37525906  0.82878561  0.81006838  1
  F  F12  1  0.12474094  0.32878561  0.31006838  1
  F  F13  1  0.37525906  0.67121439  0.81006838  1
  F  F14  1  0.87525906  0.82878561  0.68993162  1
  F  F15  1  0.62474094  0.17121439  0.18993162  1
  F  F16  1  0.12457549  0.81499339  0.84667449  1
  F  F17  1  0.37542451  0.18500661  0.34667449  1
  F  F18  1  0.87542451  0.31499339  0.15332551  1
  F  F19  1  0.62457549  0.68500661  0.65332551  1
  F  F20  1  0.87542451  0.18500661  0.15332551  1
  F  F21  1  0.62457549  0.81499339  0.65332551  1
  F  F22  1  0.12457549  0.68500661  0.84667449  1
  F  F23  1  0.37542451  0.31499339  0.34667449  1
  F  F24  1  0.06904780  0.42858191  0.23853449  1
  F  F25  1  0.43095220  0.57141809  0.73853449  1
  F  F26  1  0.93095220  0.92858191  0.76146551  1
  F  F27  1  0.56904780  0.07141809  0.26146551  1
  F  F28  1  0.93095220  0.57141809  0.76146551  1
  F  F29  1  0.56904780  0.42858191  0.26146551  1
  F  F30  1  0.06904780  0.07141809  0.23853449  1
  F  F31  1  0.43095220  0.92858191  0.73853449  1
  F  F32  1  0.29579724  0.96350695  0.94008296  1
  F  F33  1  0.20420276  0.03649305  0.44008296  1
  F  F34  1  0.70420276  0.46350695  0.05991704  1
  F  F35  1  0.79579724  0.53649305  0.55991704  1
  F  F36  1  0.70420276  0.03649305  0.05991704  1
  F  F37  1  0.79579724  0.96350695  0.55991704  1
  F  F38  1  0.29579724  0.53649305  0.94008296  1
  F  F39  1  0.20420276  0.46350695  0.44008296  1
  F  F40  1  0.95727255  0.84275642  0.66486521  1
  F  F41  1  0.54272745  0.15724358  0.16486521  1
  F  F42  1  0.04272745  0.34275642  0.33513479  1
  F  F43  1  0.45727255  0.65724358  0.83513479  1
  F  F44  1  0.04272745  0.15724358  0.33513479  1
  F  F45  1  0.45727255  0.84275642  0.83513479  1
  F  F46  1  0.95727255  0.65724358  0.66486521  1
  F  F47  1  0.54272745  0.34275642  0.16486521  1
  Li  Li48  1  0.14453941  0.55336108  0.70248603  1
  Li  Li49  1  0.35546059  -0.55336108  1.20248603  1
  Li  Li50  1  -0.14453941  1.05336108  -0.70248603  1
  Li  Li51  1  0.64453941  -0.05336108  -0.20248603  1
  Li  Li52  1  -0.14453941  -0.55336108  -0.70248603  1
  Li  Li53  1  0.64453941  0.55336108  -0.20248603  1
  Li  Li54  1  0.14453941  -0.05336108  0.70248603  1
  Li  Li55  1  0.35546059  1.05336108  1.20248603  1
  Li  Li56  1  0.10613178  0.55879537  0.12320882  1
  Li  Li57  1  0.39386822  0.44120463  0.62320882  1
  Li  Li58  1  0.89386822  0.05879537  0.87679118  1
  Li  Li59  1  0.60613178  0.94120463  0.37679118  1
  Li  Li60  1  0.89386822  0.44120463  0.87679118  1
  Li  Li61  1  0.60613178  0.55879537  0.37679118  1
  Li  Li62  1  0.10613178  0.94120463  0.12320882  1
  Li  Li63  1  0.39386822  0.05879537  0.62320882  1
  Li  Li64  1  0.00000000  0.00000000  0.00000000  1
  Li  Li65  1  0.50000000  0.00000000  0.50000000  1
  Li  Li66  1  0.00000000  0.50000000  0.00000000  1
  Li  Li67  1  0.50000000  0.50000000  0.50000000  1
  Li  Li68  1  0.87191287  0.35755276  0.92170968  1
  Li  Li69  1  0.62808713  0.64244724  0.42170968  1
  Li  Li70  1  0.12808713  0.85755276  0.07829032  1
  Li  Li71  1  0.37191287  0.14244724  0.57829032  1
  Li  Li72  1  0.12808713  0.64244724  0.07829032  1
  Li  Li73  1  0.37191287  0.35755276  0.57829032  1
  Li  Li74  1  0.87191287  0.14244724  0.92170968  1
  Li  Li75  1  0.62808713  0.85755276  0.42170968  1
  Li  Li76  1  0.55237334  0.17189912  0.41275694  1
  Li  Li77  1  0.94762666  0.82810088  0.91275694  1
  Li  Li78  1  0.44762666  0.67189912  0.58724306  1
  Li  Li79  1  0.05237334  0.32810088  0.08724306  1
  Li  Li80  1  0.44762666  0.82810088  0.58724306  1
  Li  Li81  1  0.05237334  0.17189912  0.08724306  1
  Li  Li82  1  0.55237334  0.32810088  0.41275694  1
  Li  Li83  1  0.94762666  0.67189912  0.91275694  1
  Li  Li84  1  0.08433992  0.25000000  0.70835284  1
  Li  Li85  1  0.41566008  0.75000000  0.20835284  1
  Li  Li86  1  0.91566008  0.75000000  0.29164716  1
  Li  Li87  1  0.58433992  0.25000000  0.79164716  1
  Li  Li88  1  0.00000000  0.00000000  0.50000000  1
  Li  Li89  1  0.50000000  0.00000000  0.00000000  1
  Li  Li90  1  0.00000000  0.50000000  0.50000000  1
  Li  Li91  1  0.50000000  0.50000000  0.00000000  1
  Li  Li92  1  0.79729395  0.25000000  0.26959408  1
  Li  Li93  1  0.70270605  0.75000000  0.76959408  1
  Li  Li94  1  0.20270605  0.75000000  0.73040592  1
  Li  Li95  1  0.29729395  0.25000000  0.23040592  1
