# generated using pymatgen
data_LiCu3PSe
_symmetry_space_group_name_H-M   'P 1'
_cell_length_a   4.16605480
_cell_length_b   4.37313406
_cell_length_c   6.17185708
_cell_angle_alpha   95.66741757
_cell_angle_beta   100.13089901
_cell_angle_gamma   109.29545531
_symmetry_Int_Tables_number   1
_chemical_formula_structural   LiCu3PSe
_chemical_formula_sum   'Li1 Cu3 P1 Se1'
_cell_volume   102.97238842
_cell_formula_units_Z   1
loop_
 _symmetry_equiv_pos_site_id
 _symmetry_equiv_pos_as_xyz
  1  'x, y, z'
loop_
 _atom_site_type_symbol
 _atom_site_label
 _atom_site_symmetry_multiplicity
 _atom_site_fract_x
 _atom_site_fract_y
 _atom_site_fract_z
 _atom_site_occupancy
  P  P0  1  0.00000000  0.00000000  0.00000000  1
  Se  Se1  1  0.33300000  0.66700000  0.25000000  1
  Li  Li2  1  0.66700000  0.33300000  0.50000000  1
  Cu  Cu3  1  0.00000000  0.00000000  0.75000000  1
  Cu  Cu4  1  0.32188233  0.58660343  0.09673743  1
  Cu  Cu5  1  0.76300102  0.69474010  0.82861876  1
