# generated using pymatgen
data_LiF
_symmetry_space_group_name_H-M   'P 1'
_cell_length_a   9.88299526
_cell_length_b   9.42184541
_cell_length_c   8.25913782
_cell_angle_alpha   90.00000000
_cell_angle_beta   90.00000000
_cell_angle_gamma   90.00000000
_symmetry_Int_Tables_number   1
_chemical_formula_structural   LiF
_chemical_formula_sum   'Li30 F30'
_cell_volume   769.05831911
_cell_formula_units_Z   30
loop_
 _symmetry_equiv_pos_site_id
 _symmetry_equiv_pos_as_xyz
  1  'x, y, z'
loop_
 _atom_site_type_symbol
 _atom_site_label
 _atom_site_symmetry_multiplicity
 _atom_site_fract_x
 _atom_site_fract_y
 _atom_site_fract_z
 _atom_site_occupancy
  F  F0  1  0.25934805  0.22163234  0.76401233  1
  F  F1  1  -0.25934805  -0.22163234  0.76401233  1
  F  F2  1  0.24065195  0.72163234  -0.76401233  1
  F  F3  1  0.75934805  0.27836766  -0.76401233  1
  F  F4  1  -0.25934805  -0.22163234  -0.76401233  1
  F  F5  1  0.25934805  0.22163234  -0.76401233  1
  F  F6  1  0.75934805  0.27836766  0.76401233  1
  F  F7  1  0.24065195  0.72163234  0.76401233  1
  F  F8  1  0.69284136  0.12440827  0.39478866  1
  F  F9  1  0.30715864  0.87559173  0.39478866  1
  F  F10  1  0.80715864  0.62440827  0.60521134  1
  F  F11  1  0.19284136  0.37559173  0.60521134  1
  F  F12  1  0.30715864  0.87559173  0.60521134  1
  F  F13  1  0.69284136  0.12440827  0.60521134  1
  F  F14  1  0.19284136  0.37559173  0.39478866  1
  F  F15  1  0.80715864  0.62440827  0.39478866  1
  F  F16  1  0.00000000  0.00000000  0.34437381  1
  F  F17  1  0.50000000  0.50000000  0.65562619  1
  F  F18  1  0.00000000  0.00000000  0.65562619  1
  F  F19  1  0.50000000  0.50000000  0.34437381  1
  F  F20  1  0.79800551  0.55039563  0.10554082  1
  F  F21  1  0.20199449  0.44960437  0.10554082  1
  F  F22  1  0.70199449  0.05039563  0.89445918  1
  F  F23  1  0.29800551  0.94960437  0.89445918  1
  F  F24  1  0.20199449  0.44960437  0.89445918  1
  F  F25  1  0.79800551  0.55039563  0.89445918  1
  F  F26  1  0.29800551  0.94960437  0.10554082  1
  F  F27  1  0.70199449  0.05039563  0.10554082  1
  F  F28  1  0.00000000  0.50000000  0.50000000  1
  F  F29  1  0.50000000  0.00000000  0.50000000  1
  Li  Li30  1  0.31491242  0.56183319  0.19252766  1
  Li  Li31  1  0.68508758  0.43816681  0.19252766  1
  Li  Li32  1  0.18508758  0.06183319  0.80747234  1
  Li  Li33  1  0.81491242  0.93816681  0.80747234  1
  Li  Li34  1  0.68508758  0.43816681  0.80747234  1
  Li  Li35  1  0.31491242  0.56183319  0.80747234  1
  Li  Li36  1  0.81491242  0.93816681  0.19252766  1
  Li  Li37  1  0.18508758  0.06183319  0.19252766  1
  Li  Li38  1  0.05608785  0.27192567  0.71925927  1
  Li  Li39  1  0.94391215  0.72807433  0.71925927  1
  Li  Li40  1  0.44391215  0.77192567  0.28074073  1
  Li  Li41  1  0.55608785  0.22807433  0.28074073  1
  Li  Li42  1  0.94391215  0.72807433  0.28074073  1
  Li  Li43  1  0.05608785  0.27192567  0.28074073  1
  Li  Li44  1  0.55608785  0.22807433  0.71925927  1
  Li  Li45  1  0.44391215  0.77192567  0.71925927  1
  Li  Li46  1  0.83017097  0.90001243  0.50000000  1
  Li  Li47  1  0.16982903  0.09998757  0.50000000  1
  Li  Li48  1  0.66982903  0.40001243  0.50000000  1
  Li  Li49  1  0.33017097  0.59998757  0.50000000  1
  Li  Li50  1  0.00000000  0.50000000  0.32280235  1
  Li  Li51  1  0.50000000  0.00000000  0.67719765  1
  Li  Li52  1  0.00000000  0.50000000  0.67719765  1
  Li  Li53  1  0.50000000  0.00000000  0.32280235  1
  Li  Li54  1  0.03589519  0.55732585  -0.00000000  1
  Li  Li55  1  0.96410481  0.44267415  0.00000000  1
  Li  Li56  1  0.46410481  0.05732585  0.00000000  1
  Li  Li57  1  0.53589519  0.94267415  0.00000000  1
  Li  Li58  1  0.00000000  0.00000000  0.00000000  1
  Li  Li59  1  0.50000000  0.50000000  0.00000000  1
