# generated using pymatgen
data_LiF
_symmetry_space_group_name_H-M   'P 1'
_cell_length_a   10.57614141
_cell_length_b   10.57614141
_cell_length_c   5.71311805
_cell_angle_alpha   90.00000000
_cell_angle_beta   90.00000000
_cell_angle_gamma   120.00000000
_symmetry_Int_Tables_number   1
_chemical_formula_structural   LiF
_chemical_formula_sum   'Li30 F30'
_cell_volume   553.42443098
_cell_formula_units_Z   30
loop_
 _symmetry_equiv_pos_site_id
 _symmetry_equiv_pos_as_xyz
  1  'x, y, z'
loop_
 _atom_site_type_symbol
 _atom_site_label
 _atom_site_symmetry_multiplicity
 _atom_site_fract_x
 _atom_site_fract_y
 _atom_site_fract_z
 _atom_site_occupancy
  F  F0  1  0.10736778  0.40058969  0.03895917  1
  F  F1  1  -0.40058969  -0.29322190  0.03895917  1
  F  F2  1  0.29322190  -0.10736778  0.03895917  1
  F  F3  1  -0.10736778  -0.40058969  0.53895917  1
  F  F4  1  0.40058969  0.29322190  0.53895917  1
  F  F5  1  -0.29322190  0.10736778  0.53895917  1
  F  F6  1  -0.10736778  -0.40058969  -0.03895917  1
  F  F7  1  0.40058969  0.29322190  -0.03895917  1
  F  F8  1  -0.29322190  0.10736778  -0.03895917  1
  F  F9  1  0.10736778  0.40058969  0.46104083  1
  F  F10  1  -0.40058969  -0.29322190  0.46104083  1
  F  F11  1  0.29322190  -0.10736778  0.46104083  1
  F  F12  1  0.78846974  0.72406580  0.36720684  1
  F  F13  1  0.27593420  0.06440393  0.36720684  1
  F  F14  1  0.93559607  0.21153026  0.36720684  1
  F  F15  1  0.21153026  0.27593420  0.86720684  1
  F  F16  1  0.72406580  0.93559607  0.86720684  1
  F  F17  1  0.06440393  0.78846974  0.86720684  1
  F  F18  1  0.21153026  0.27593420  0.63279316  1
  F  F19  1  0.72406580  0.93559607  0.63279316  1
  F  F20  1  0.06440393  0.78846974  0.63279316  1
  F  F21  1  0.78846974  0.72406580  0.13279316  1
  F  F22  1  0.27593420  0.06440393  0.13279316  1
  F  F23  1  0.93559607  0.21153026  0.13279316  1
  F  F24  1  0.66666667  0.33333333  0.25000000  1
  F  F25  1  0.33333333  0.66666667  0.75000000  1
  F  F26  1  0.33333333  0.66666667  0.25000000  1
  F  F27  1  0.66666667  0.33333333  0.75000000  1
  F  F28  1  0.00000000  0.00000000  0.25000000  1
  F  F29  1  0.00000000  0.00000000  0.75000000  1
  Li  Li30  1  0.84047111  0.85235108  0.42370745  1
  Li  Li31  1  0.14764892  0.98812003  0.42370745  1
  Li  Li32  1  0.01187997  0.15952889  0.42370745  1
  Li  Li33  1  0.15952889  0.14764892  0.92370745  1
  Li  Li34  1  0.85235108  0.01187997  0.92370745  1
  Li  Li35  1  0.98812003  0.84047111  0.92370745  1
  Li  Li36  1  0.15952889  0.14764892  0.57629255  1
  Li  Li37  1  0.85235108  0.01187997  0.57629255  1
  Li  Li38  1  0.98812003  0.84047111  0.57629255  1
  Li  Li39  1  0.84047111  0.85235108  0.07629255  1
  Li  Li40  1  0.14764892  0.98812003  0.07629255  1
  Li  Li41  1  0.01187997  0.15952889  0.07629255  1
  Li  Li42  1  0.50000000  0.00000000  -0.00000000  1
  Li  Li43  1  0.00000000  0.50000000  0.00000000  1
  Li  Li44  1  0.50000000  0.50000000  0.00000000  1
  Li  Li45  1  0.50000000  0.00000000  0.50000000  1
  Li  Li46  1  0.00000000  0.50000000  0.50000000  1
  Li  Li47  1  0.50000000  0.50000000  0.50000000  1
  Li  Li48  1  0.85998844  0.99619238  0.25000000  1
  Li  Li49  1  0.00380762  0.86379605  0.25000000  1
  Li  Li50  1  0.13620395  0.14001156  0.25000000  1
  Li  Li51  1  0.14001156  0.00380762  0.75000000  1
  Li  Li52  1  0.99619238  0.13620395  0.75000000  1
  Li  Li53  1  0.86379605  0.85998844  0.75000000  1
  Li  Li54  1  0.28590396  0.55751017  0.25000000  1
  Li  Li55  1  0.44248983  0.72839379  0.25000000  1
  Li  Li56  1  0.27160621  0.71409604  0.25000000  1
  Li  Li57  1  0.71409604  0.44248983  0.75000000  1
  Li  Li58  1  0.55751017  0.27160621  0.75000000  1
  Li  Li59  1  0.72839379  0.28590396  0.75000000  1
