# generated using pymatgen
data_LiF
_symmetry_space_group_name_H-M   'P 1'
_cell_length_a   9.87827555
_cell_length_b   5.29207939
_cell_length_c   10.37625647
_cell_angle_alpha   90.00000000
_cell_angle_beta   90.00000000
_cell_angle_gamma   90.00000000
_symmetry_Int_Tables_number   1
_chemical_formula_structural   LiF
_chemical_formula_sum   'Li24 F24'
_cell_volume   542.43560004
_cell_formula_units_Z   24
loop_
 _symmetry_equiv_pos_site_id
 _symmetry_equiv_pos_as_xyz
  1  'x, y, z'
loop_
 _atom_site_type_symbol
 _atom_site_label
 _atom_site_symmetry_multiplicity
 _atom_site_fract_x
 _atom_site_fract_y
 _atom_site_fract_z
 _atom_site_occupancy
  F  F0  1  0.14392259  0.01626685  0.83241631  1
  F  F1  1  0.35607741  0.98373315  0.33241631  1
  F  F2  1  0.85607741  0.51626685  0.16758369  1
  F  F3  1  0.64392259  0.48373315  0.66758369  1
  F  F4  1  0.85607741  0.98373315  0.16758369  1
  F  F5  1  0.64392259  0.01626685  0.66758369  1
  F  F6  1  0.14392259  0.48373315  0.83241631  1
  F  F7  1  0.35607741  0.51626685  0.33241631  1
  F  F8  1  0.33673347  0.32300450  0.30522058  1
  F  F9  1  0.16326653  0.67699550  0.80522058  1
  F  F10  1  0.66326653  0.82300450  0.69477942  1
  F  F11  1  0.83673347  0.17699550  0.19477942  1
  F  F12  1  0.66326653  0.67699550  0.69477942  1
  F  F13  1  0.83673347  0.32300450  0.19477942  1
  F  F14  1  0.33673347  0.17699550  0.30522058  1
  F  F15  1  0.16326653  0.82300450  0.80522058  1
  F  F16  1  0.54695971  0.02778203  0.07960716  1
  F  F17  1  0.95304029  0.97221797  0.57960716  1
  F  F18  1  0.45304029  0.52778203  0.92039284  1
  F  F19  1  0.04695971  0.47221797  0.42039284  1
  F  F20  1  0.45304029  0.97221797  0.92039284  1
  F  F21  1  0.04695971  0.02778203  0.42039284  1
  F  F22  1  0.54695971  0.47221797  0.07960716  1
  F  F23  1  0.95304029  0.52778203  0.57960716  1
  Li  Li24  1  0.00000000  0.00000000  0.00000000  1
  Li  Li25  1  0.50000000  0.00000000  0.50000000  1
  Li  Li26  1  0.00000000  0.50000000  0.00000000  1
  Li  Li27  1  0.50000000  0.50000000  0.50000000  1
  Li  Li28  1  0.00000000  0.00000000  0.50000000  1
  Li  Li29  1  0.50000000  0.00000000  0.00000000  1
  Li  Li30  1  0.00000000  0.50000000  0.50000000  1
  Li  Li31  1  0.50000000  0.50000000  0.00000000  1
  Li  Li32  1  0.34798378  0.25000000  0.52333168  1
  Li  Li33  1  0.15201622  0.75000000  0.02333168  1
  Li  Li34  1  0.65201622  0.75000000  0.47666832  1
  Li  Li35  1  0.84798378  0.25000000  0.97666832  1
  Li  Li36  1  0.75719491  0.25000000  0.51849343  1
  Li  Li37  1  0.74280509  0.75000000  0.01849343  1
  Li  Li38  1  0.24280509  0.75000000  0.48150657  1
  Li  Li39  1  0.25719491  0.25000000  0.98150657  1
  Li  Li40  1  0.27659366  0.56031875  0.64883432  1
  Li  Li41  1  0.22340634  -0.56031875  1.14883432  1
  Li  Li42  1  -0.27659366  1.06031875  -0.64883432  1
  Li  Li43  1  0.77659366  -0.06031875  -0.14883432  1
  Li  Li44  1  -0.27659366  -0.56031875  -0.64883432  1
  Li  Li45  1  0.77659366  0.56031875  -0.14883432  1
  Li  Li46  1  0.27659366  -0.06031875  0.64883432  1
  Li  Li47  1  0.22340634  1.06031875  1.14883432  1
