# generated using pymatgen
data_LiF
_symmetry_space_group_name_H-M   'P 1'
_cell_length_a   10.89325345
_cell_length_b   9.16215154
_cell_length_c   5.46092061
_cell_angle_alpha   90.00000000
_cell_angle_beta   90.00000000
_cell_angle_gamma   90.00000000
_symmetry_Int_Tables_number   1
_chemical_formula_structural   LiF
_chemical_formula_sum   'Li24 F24'
_cell_volume   545.03067042
_cell_formula_units_Z   24
loop_
 _symmetry_equiv_pos_site_id
 _symmetry_equiv_pos_as_xyz
  1  'x, y, z'
loop_
 _atom_site_type_symbol
 _atom_site_label
 _atom_site_symmetry_multiplicity
 _atom_site_fract_x
 _atom_site_fract_y
 _atom_site_fract_z
 _atom_site_occupancy
  F  F0  1  0.85327197  0.50089220  0.85331886  1
  F  F1  1  0.64672803  0.49910780  0.35331886  1
  F  F2  1  0.14672803  0.00089220  0.14668114  1
  F  F3  1  0.35327197  0.99910780  0.64668114  1
  F  F4  1  0.14672803  0.49910780  0.14668114  1
  F  F5  1  0.35327197  0.50089220  0.64668114  1
  F  F6  1  0.85327197  0.99910780  0.85331886  1
  F  F7  1  0.64672803  0.00089220  0.35331886  1
  F  F8  1  0.95950659  0.81745273  0.69203118  1
  F  F9  1  0.54049341  0.18254727  0.19203118  1
  F  F10  1  0.04049341  0.31745273  0.30796882  1
  F  F11  1  0.45950659  0.68254727  0.80796882  1
  F  F12  1  0.04049341  0.18254727  0.30796882  1
  F  F13  1  0.45950659  0.81745273  0.80796882  1
  F  F14  1  0.95950659  0.68254727  0.69203118  1
  F  F15  1  0.54049341  0.31745273  0.19203118  1
  F  F16  1  0.66081980  0.18267398  0.25046935  1
  F  F17  1  0.83918020  0.81732602  0.75046935  1
  F  F18  1  0.33918020  0.68267398  0.74953065  1
  F  F19  1  0.16081980  0.31732602  0.24953065  1
  F  F20  1  0.33918020  0.81732602  0.74953065  1
  F  F21  1  0.16081980  0.18267398  0.24953065  1
  F  F22  1  0.66081980  0.31732602  0.25046935  1
  F  F23  1  0.83918020  0.68267398  0.75046935  1
  Li  Li24  1  0.04322382  0.00164691  0.61898925  1
  Li  Li25  1  0.45677618  -0.00164691  1.11898925  1
  Li  Li26  1  -0.04322382  0.50164691  -0.61898925  1
  Li  Li27  1  0.54322382  0.49835309  -0.11898925  1
  Li  Li28  1  -0.04322382  -0.00164691  -0.61898925  1
  Li  Li29  1  0.54322382  0.00164691  -0.11898925  1
  Li  Li30  1  0.04322382  0.49835309  0.61898925  1
  Li  Li31  1  0.45677618  0.50164691  1.11898925  1
  Li  Li32  1  0.87841788  0.35146904  0.91342106  1
  Li  Li33  1  0.62158212  0.64853096  0.41342106  1
  Li  Li34  1  0.12158212  0.85146904  0.08657894  1
  Li  Li35  1  0.37841788  0.14853096  0.58657894  1
  Li  Li36  1  0.12158212  0.64853096  0.08657894  1
  Li  Li37  1  0.37841788  0.35146904  0.58657894  1
  Li  Li38  1  0.87841788  0.14853096  0.91342106  1
  Li  Li39  1  0.62158212  0.85146904  0.41342106  1
  Li  Li40  1  0.74122282  0.06312695  0.86159175  1
  Li  Li41  1  0.75877718  0.93687305  0.36159175  1
  Li  Li42  1  0.25877718  0.56312695  0.13840825  1
  Li  Li43  1  0.24122282  0.43687305  0.63840825  1
  Li  Li44  1  0.25877718  0.93687305  0.13840825  1
  Li  Li45  1  0.24122282  0.06312695  0.63840825  1
  Li  Li46  1  0.74122282  0.43687305  0.86159175  1
  Li  Li47  1  0.75877718  0.56312695  0.36159175  1
