# generated using pymatgen
data_LiF
_symmetry_space_group_name_H-M   'P 1'
_cell_length_a   7.11621887
_cell_length_b   11.29301563
_cell_length_c   5.74758224
_cell_angle_alpha   90.00000000
_cell_angle_beta   90.00000000
_cell_angle_gamma   90.00000000
_symmetry_Int_Tables_number   1
_chemical_formula_structural   LiF
_chemical_formula_sum   'Li24 F24'
_cell_volume   461.89623267
_cell_formula_units_Z   24
loop_
 _symmetry_equiv_pos_site_id
 _symmetry_equiv_pos_as_xyz
  1  'x, y, z'
loop_
 _atom_site_type_symbol
 _atom_site_label
 _atom_site_symmetry_multiplicity
 _atom_site_fract_x
 _atom_site_fract_y
 _atom_site_fract_z
 _atom_site_occupancy
  F  F0  1  0.30039097  0.84108770  0.45692334  1
  F  F1  1  0.19960903  0.15891230  0.95692334  1
  F  F2  1  0.69960903  0.34108770  0.54307666  1
  F  F3  1  0.80039097  0.65891230  0.04307666  1
  F  F4  1  0.69960903  0.15891230  0.54307666  1
  F  F5  1  0.80039097  0.84108770  0.04307666  1
  F  F6  1  0.30039097  0.65891230  0.45692334  1
  F  F7  1  0.19960903  0.34108770  0.95692334  1
  F  F8  1  0.23788653  0.25000000  0.87534831  1
  F  F9  1  0.26211347  0.75000000  0.37534831  1
  F  F10  1  0.76211347  0.75000000  0.12465169  1
  F  F11  1  0.73788653  0.25000000  0.62465169  1
  F  F12  1  0.19463791  0.25000000  0.73144808  1
  F  F13  1  0.30536209  0.75000000  0.23144808  1
  F  F14  1  0.80536209  0.75000000  0.26855192  1
  F  F15  1  0.69463791  0.25000000  0.76855192  1
  F  F16  1  0.01777955  0.88371321  0.59758965  1
  F  F17  1  0.48222045  0.11628679  0.09758965  1
  F  F18  1  0.98222045  0.38371321  0.40241035  1
  F  F19  1  0.51777955  0.61628679  0.90241035  1
  F  F20  1  0.98222045  0.11628679  0.40241035  1
  F  F21  1  0.51777955  0.88371321  0.90241035  1
  F  F22  1  0.01777955  0.61628679  0.59758965  1
  F  F23  1  0.48222045  0.38371321  0.09758965  1
  Li  Li24  1  0.33989639  0.37603150  0.59284284  1
  Li  Li25  1  0.16010361  -0.37603150  1.09284284  1
  Li  Li26  1  -0.33989639  0.87603150  -0.59284284  1
  Li  Li27  1  0.83989639  0.12396850  -0.09284284  1
  Li  Li28  1  -0.33989639  -0.37603150  -0.59284284  1
  Li  Li29  1  0.83989639  0.37603150  -0.09284284  1
  Li  Li30  1  0.33989639  0.12396850  0.59284284  1
  Li  Li31  1  0.16010361  0.87603150  1.09284284  1
  Li  Li32  1  0.64619413  0.50806311  0.27723696  1
  Li  Li33  1  0.85380587  0.49193689  0.77723696  1
  Li  Li34  1  0.35380587  0.00806311  0.72276304  1
  Li  Li35  1  0.14619413  0.99193689  0.22276304  1
  Li  Li36  1  0.35380587  0.49193689  0.72276304  1
  Li  Li37  1  0.14619413  0.50806311  0.22276304  1
  Li  Li38  1  0.64619413  0.99193689  0.27723696  1
  Li  Li39  1  0.85380587  0.00806311  0.77723696  1
  Li  Li40  1  0.02963892  0.66994400  0.27264485  1
  Li  Li41  1  0.47036108  0.33005600  0.77264485  1
  Li  Li42  1  0.97036108  0.16994400  0.72735515  1
  Li  Li43  1  0.52963892  0.83005600  0.22735515  1
  Li  Li44  1  0.97036108  0.33005600  0.72735515  1
  Li  Li45  1  0.52963892  0.66994400  0.22735515  1
  Li  Li46  1  0.02963892  0.83005600  0.27264485  1
  Li  Li47  1  0.47036108  0.16994400  0.77264485  1
