# generated using pymatgen
data_LiF
_symmetry_space_group_name_H-M   'P 1'
_cell_length_a   9.47157577
_cell_length_b   8.41883951
_cell_length_c   8.52533427
_cell_angle_alpha   90.00000000
_cell_angle_beta   90.00000000
_cell_angle_gamma   90.00000000
_symmetry_Int_Tables_number   1
_chemical_formula_structural   LiF
_chemical_formula_sum   'Li24 F24'
_cell_volume   679.80739543
_cell_formula_units_Z   24
loop_
 _symmetry_equiv_pos_site_id
 _symmetry_equiv_pos_as_xyz
  1  'x, y, z'
loop_
 _atom_site_type_symbol
 _atom_site_label
 _atom_site_symmetry_multiplicity
 _atom_site_fract_x
 _atom_site_fract_y
 _atom_site_fract_z
 _atom_site_occupancy
  F  F0  1  0.71091203  0.25000000  0.17716419  1
  F  F1  1  0.78908797  0.75000000  0.67716419  1
  F  F2  1  0.28908797  0.75000000  0.82283581  1
  F  F3  1  0.21091203  0.25000000  0.32283581  1
  F  F4  1  0.98192285  0.30444041  0.21816797  1
  F  F5  1  0.51807715  0.69555959  0.71816797  1
  F  F6  1  0.01807715  0.80444041  0.78183203  1
  F  F7  1  0.48192285  0.19555959  0.28183203  1
  F  F8  1  0.01807715  0.69555959  0.78183203  1
  F  F9  1  0.48192285  0.30444041  0.28183203  1
  F  F10  1  0.98192285  0.19555959  0.21816797  1
  F  F11  1  0.51807715  0.80444041  0.71816797  1
  F  F12  1  0.00000000  0.00000000  0.00000000  1
  F  F13  1  0.50000000  0.00000000  0.50000000  1
  F  F14  1  0.00000000  0.50000000  0.00000000  1
  F  F15  1  0.50000000  0.50000000  0.50000000  1
  F  F16  1  0.23747335  0.49142741  0.84862869  1
  F  F17  1  0.26252665  0.50857259  0.34862869  1
  F  F18  1  0.76252665  0.99142741  0.15137131  1
  F  F19  1  0.73747335  0.00857259  0.65137131  1
  F  F20  1  0.76252665  0.50857259  0.15137131  1
  F  F21  1  0.73747335  0.49142741  0.65137131  1
  F  F22  1  0.23747335  0.00857259  0.84862869  1
  F  F23  1  0.26252665  0.99142741  0.34862869  1
  Li  Li24  1  0.01885799  0.58053904  0.19622694  1
  Li  Li25  1  0.48114201  -0.58053904  0.69622694  1
  Li  Li26  1  -0.01885799  1.08053904  -0.19622694  1
  Li  Li27  1  0.51885799  -0.08053904  0.30377306  1
  Li  Li28  1  -0.01885799  -0.58053904  -0.19622694  1
  Li  Li29  1  0.51885799  0.58053904  0.30377306  1
  Li  Li30  1  0.01885799  -0.08053904  0.19622694  1
  Li  Li31  1  0.48114201  1.08053904  0.69622694  1
  Li  Li32  1  0.13551321  0.25000000  0.54905385  1
  Li  Li33  1  0.36448679  0.75000000  0.04905385  1
  Li  Li34  1  0.86448679  0.75000000  0.45094615  1
  Li  Li35  1  0.63551321  0.25000000  0.95094615  1
  Li  Li36  1  0.56282632  0.25000000  0.64050496  1
  Li  Li37  1  0.93717368  0.75000000  0.14050496  1
  Li  Li38  1  0.43717368  0.75000000  0.35949504  1
  Li  Li39  1  0.06282632  0.25000000  0.85949504  1
  Li  Li40  1  0.06763243  0.62091507  0.65543400  1
  Li  Li41  1  0.43236757  0.37908493  0.15543400  1
  Li  Li42  1  0.93236757  0.12091507  0.34456600  1
  Li  Li43  1  0.56763243  0.87908493  0.84456600  1
  Li  Li44  1  0.93236757  0.37908493  0.34456600  1
  Li  Li45  1  0.56763243  0.62091507  0.84456600  1
  Li  Li46  1  0.06763243  0.87908493  0.65543400  1
  Li  Li47  1  0.43236757  0.12091507  0.15543400  1
