# generated using pymatgen
data_Li2Y2Mo(PSe)2
_symmetry_space_group_name_H-M   'P 1'
_cell_length_a   5.20418273
_cell_length_b   5.45478372
_cell_length_c   7.16518961
_cell_angle_alpha   94.40501398
_cell_angle_beta   99.59320465
_cell_angle_gamma   107.69319040
_symmetry_Int_Tables_number   1
_chemical_formula_structural   Li2Y2Mo(PSe)2
_chemical_formula_sum   'Li2 Y2 Mo1 P2 Se2'
_cell_volume   189.30493722
_cell_formula_units_Z   1
loop_
 _symmetry_equiv_pos_site_id
 _symmetry_equiv_pos_as_xyz
  1  'x, y, z'
loop_
 _atom_site_type_symbol
 _atom_site_label
 _atom_site_symmetry_multiplicity
 _atom_site_fract_x
 _atom_site_fract_y
 _atom_site_fract_z
 _atom_site_occupancy
  Se  Se0  1  0.00000000  0.00000000  0.00000000  1
  Se  Se1  1  0.50000000  0.50000000  0.50000000  1
  P  P2  1  0.25000000  0.25000000  0.25000000  1
  P  P3  1  0.75000000  0.25000000  0.00000000  1
  Mo  Mo4  1  0.25000000  0.75000000  0.50000000  1
  Li  Li5  1  0.18825226  0.34078322  0.56642562  1
  Li  Li6  1  0.23106042  0.18776652  0.59252584  1
  Y  Y7  1  0.65846430  0.30275895  0.31473945  1
  Y  Y8  1  0.61649142  0.29267266  0.90675838  1
