# generated using pymatgen
data_Li2Y2MoP3Se2
_symmetry_space_group_name_H-M   'P 1'
_cell_length_a   4.37211496
_cell_length_b   4.66833383
_cell_length_c   6.93252755
_cell_angle_alpha   95.85801576
_cell_angle_beta   102.75754046
_cell_angle_gamma   113.52932108
_symmetry_Int_Tables_number   1
_chemical_formula_structural   Li2Y2MoP3Se2
_chemical_formula_sum   'Li2 Y2 Mo1 P3 Se2'
_cell_volume   123.63314144
_cell_formula_units_Z   1
loop_
 _symmetry_equiv_pos_site_id
 _symmetry_equiv_pos_as_xyz
  1  'x, y, z'
loop_
 _atom_site_type_symbol
 _atom_site_label
 _atom_site_symmetry_multiplicity
 _atom_site_fract_x
 _atom_site_fract_y
 _atom_site_fract_z
 _atom_site_occupancy
  Se  Se0  1  0.00000000  0.00000000  0.00000000  1
  Se  Se1  1  0.50000000  0.50000000  0.50000000  1
  P  P2  1  0.25000000  0.25000000  0.25000000  1
  P  P3  1  0.75000000  0.25000000  0.00000000  1
  P  P4  1  0.25000000  0.75000000  0.50000000  1
  Mo  Mo5  1  0.48142036  0.30705982  0.11778451  1
  Li  Li6  1  0.40820376  0.65720225  0.70275782  1
  Li  Li7  1  0.51022712  0.87419095  0.92326893  1
  Y  Y8  1  0.44654480  0.04731050  0.75557621  1
  Y  Y9  1  0.06602590  0.97207070  0.99450453  1
