# generated using pymatgen
data_Li2YTe4P2Se
_symmetry_space_group_name_H-M   'P 1'
_cell_length_a   5.38252149
_cell_length_b   5.50189917
_cell_length_c   7.19601947
_cell_angle_alpha   94.70389565
_cell_angle_beta   99.52959322
_cell_angle_gamma   107.77313290
_symmetry_Int_Tables_number   1
_chemical_formula_structural   Li2YTe4P2Se
_chemical_formula_sum   'Li2 Y1 Te4 P2 Se1'
_cell_volume   198.12908175
_cell_formula_units_Z   1
loop_
 _symmetry_equiv_pos_site_id
 _symmetry_equiv_pos_as_xyz
  1  'x, y, z'
loop_
 _atom_site_type_symbol
 _atom_site_label
 _atom_site_symmetry_multiplicity
 _atom_site_fract_x
 _atom_site_fract_y
 _atom_site_fract_z
 _atom_site_occupancy
  Se  Se0  1  0.00000000  0.00000000  0.00000000  1
  Te  Te1  1  0.50000000  0.50000000  0.50000000  1
  Te  Te2  1  0.25000000  0.25000000  0.25000000  1
  Te  Te3  1  0.75000000  0.25000000  0.00000000  1
  Te  Te4  1  0.25000000  0.75000000  0.50000000  1
  P  P5  1  0.51012503  0.72806982  0.15475432  1
  P  P6  1  0.66757139  0.68817225  0.05536210  1
  Li  Li7  1  0.02799038  0.44743671  0.06865245  1
  Li  Li8  1  0.24700797  0.57099245  0.07257994  1
  Y  Y9  1  0.17187996  0.79656085  0.57304872  1
