# generated using pymatgen
data_Li2YTe4AsP3
_symmetry_space_group_name_H-M   'P 1'
_cell_length_a   4.36518196
_cell_length_b   4.58207817
_cell_length_c   6.88793535
_cell_angle_alpha   96.43968279
_cell_angle_beta   103.46640930
_cell_angle_gamma   113.15452533
_symmetry_Int_Tables_number   1
_chemical_formula_structural   Li2YTe4AsP3
_chemical_formula_sum   'Li2 Y1 Te4 As1 P3'
_cell_volume   119.94941920
_cell_formula_units_Z   1
loop_
 _symmetry_equiv_pos_site_id
 _symmetry_equiv_pos_as_xyz
  1  'x, y, z'
loop_
 _atom_site_type_symbol
 _atom_site_label
 _atom_site_symmetry_multiplicity
 _atom_site_fract_x
 _atom_site_fract_y
 _atom_site_fract_z
 _atom_site_occupancy
  Te  Te0  1  0.00000000  0.00000000  0.00000000  1
  Te  Te1  1  0.50000000  0.50000000  0.50000000  1
  Te  Te2  1  0.25000000  0.25000000  0.25000000  1
  Te  Te3  1  0.75000000  0.25000000  0.00000000  1
  P  P4  1  0.25000000  0.75000000  0.50000000  1
  P  P5  1  0.78386956  0.08587594  0.07216739  1
  P  P6  1  0.68353170  0.72549803  0.94294491  1
  As  As7  1  0.24626061  0.54927200  0.52609419  1
  Li  Li8  1  0.90945762  0.90435946  0.61267596  1
  Li  Li9  1  0.79459673  0.91004047  0.27107818  1
  Y  Y10  1  0.93636509  0.23821324  0.50679790  1
