# generated using pymatgen
data_LiYAs2P
_symmetry_space_group_name_H-M   'P 1'
_cell_length_a   4.35689343
_cell_length_b   4.52854546
_cell_length_c   6.67644005
_cell_angle_alpha   95.75201943
_cell_angle_beta   102.08202567
_cell_angle_gamma   112.40620501
_symmetry_Int_Tables_number   1
_chemical_formula_structural   LiYAs2P
_chemical_formula_sum   'Li2 Y2 As4 P2'
_cell_volume   116.70162333
_cell_formula_units_Z   2
loop_
 _symmetry_equiv_pos_site_id
 _symmetry_equiv_pos_as_xyz
  1  'x, y, z'
loop_
 _atom_site_type_symbol
 _atom_site_label
 _atom_site_symmetry_multiplicity
 _atom_site_fract_x
 _atom_site_fract_y
 _atom_site_fract_z
 _atom_site_occupancy
  P  P0  1  0.12500000  0.00000000  0.25000000  1
  P  P1  1  0.00000000  0.00000000  0.00000000  1
  As  As2  1  0.37500000  0.00000000  0.25000000  1
  As  As3  1  0.25000000  0.25000000  0.25000000  1
  As  As4  1  0.00000000  0.25000000  0.12500000  1
  As  As5  1  0.51980343  0.95077416  0.31752183  1
  Li  Li6  1  0.94406719  0.57273449  0.64892247  1
  Li  Li7  1  0.87291287  0.47613275  0.43594725  1
  Y  Y8  1  0.05870116  0.46378232  0.33256857  1
  Y  Y9  1  0.58067468  0.89656304  0.93205807  1
