# generated using pymatgen
data_LiCu3MoP2Se
_symmetry_space_group_name_H-M   'P 1'
_cell_length_a   5.03048048
_cell_length_b   5.39416545
_cell_length_c   6.49829711
_cell_angle_alpha   94.62154540
_cell_angle_beta   97.46766847
_cell_angle_gamma   102.31137061
_symmetry_Int_Tables_number   1
_chemical_formula_structural   LiCu3MoP2Se
_chemical_formula_sum   'Li1 Cu3 Mo1 P2 Se1'
_cell_volume   169.74603691
_cell_formula_units_Z   1
loop_
 _symmetry_equiv_pos_site_id
 _symmetry_equiv_pos_as_xyz
  1  'x, y, z'
loop_
 _atom_site_type_symbol
 _atom_site_label
 _atom_site_symmetry_multiplicity
 _atom_site_fract_x
 _atom_site_fract_y
 _atom_site_fract_z
 _atom_site_occupancy
  Se  Se0  1  0.00000000  0.00000000  0.00000000  1
  Cu  Cu1  1  0.50000000  0.50000000  0.50000000  1
  Cu  Cu2  1  0.25000000  0.25000000  0.25000000  1
  Cu  Cu3  1  0.75000000  0.25000000  0.00000000  1
  P  P4  1  0.25000000  0.75000000  0.50000000  1
  P  P5  1  0.28257364  0.29761774  0.86755822  1
  Mo  Mo6  1  0.61939214  0.02765271  0.62910802  1
  Li  Li7  1  0.38095046  0.14212002  0.03175935  1
