# generated using pymatgen
data_LiF
_symmetry_space_group_name_H-M   'P 1'
_cell_length_a   8.31369377
_cell_length_b   8.31369377
_cell_length_c   5.56857779
_cell_angle_alpha   90.00000000
_cell_angle_beta   90.00000000
_cell_angle_gamma   120.00000000
_symmetry_Int_Tables_number   1
_chemical_formula_structural   LiF
_chemical_formula_sum   'Li22 F22'
_cell_volume   333.32122536
_cell_formula_units_Z   22
loop_
 _symmetry_equiv_pos_site_id
 _symmetry_equiv_pos_as_xyz
  1  'x, y, z'
loop_
 _atom_site_type_symbol
 _atom_site_label
 _atom_site_symmetry_multiplicity
 _atom_site_fract_x
 _atom_site_fract_y
 _atom_site_fract_z
 _atom_site_occupancy
  F  F0  1  0.29940940  0.67641111  0.48750410  1
  F  F1  1  -0.67641111  -0.37700171  0.48750410  1
  F  F2  1  0.37700171  -0.29940940  0.48750410  1
  F  F3  1  -0.29940940  -0.67641111  0.98750410  1
  F  F4  1  0.67641111  0.37700171  0.98750410  1
  F  F5  1  -0.37700171  0.29940940  0.98750410  1
  F  F6  1  -0.29940940  -0.67641111  -0.48750410  1
  F  F7  1  0.67641111  0.37700171  -0.48750410  1
  F  F8  1  -0.37700171  0.29940940  -0.48750410  1
  F  F9  1  0.29940940  0.67641111  0.01249590  1
  F  F10  1  -0.67641111  -0.37700171  0.01249590  1
  F  F11  1  0.37700171  -0.29940940  0.01249590  1
  F  F12  1  0.01979815  0.22833405  0.25000000  1
  F  F13  1  0.77166595  0.79146410  0.25000000  1
  F  F14  1  0.20853590  0.98020185  0.25000000  1
  F  F15  1  0.98020185  0.77166595  0.75000000  1
  F  F16  1  0.22833405  0.20853590  0.75000000  1
  F  F17  1  0.79146410  0.01979815  0.75000000  1
  F  F18  1  0.00000000  0.00000000  0.00000000  1
  F  F19  1  0.00000000  0.00000000  0.50000000  1
  F  F20  1  0.66666667  0.33333333  0.25000000  1
  F  F21  1  0.33333333  0.66666667  0.75000000  1
  Li  Li22  1  0.96858219  0.80960005  0.50720929  1
  Li  Li23  1  0.19039995  0.15898214  0.50720929  1
  Li  Li24  1  0.84101786  0.03141781  0.50720929  1
  Li  Li25  1  0.03141781  0.19039995  0.00720929  1
  Li  Li26  1  0.80960005  0.84101786  0.00720929  1
  Li  Li27  1  0.15898214  0.96858219  0.00720929  1
  Li  Li28  1  0.03141781  0.19039995  0.49279071  1
  Li  Li29  1  0.80960005  0.84101786  0.49279071  1
  Li  Li30  1  0.15898214  0.96858219  0.49279071  1
  Li  Li31  1  0.96858219  0.80960005  0.99279071  1
  Li  Li32  1  0.19039995  0.15898214  0.99279071  1
  Li  Li33  1  0.84101786  0.03141781  0.99279071  1
  Li  Li34  1  0.33333333  0.66666667  0.25000000  1
  Li  Li35  1  0.66666667  0.33333333  0.75000000  1
  Li  Li36  1  0.50000000  0.00000000  0.00000000  1
  Li  Li37  1  0.00000000  0.50000000  0.00000000  1
  Li  Li38  1  0.50000000  0.50000000  0.00000000  1
  Li  Li39  1  0.50000000  0.00000000  0.50000000  1
  Li  Li40  1  0.00000000  0.50000000  0.50000000  1
  Li  Li41  1  0.50000000  0.50000000  0.50000000  1
  Li  Li42  1  0.00000000  0.00000000  0.25000000  1
  Li  Li43  1  0.00000000  0.00000000  0.75000000  1
