# generated using pymatgen
data_LiF
_symmetry_space_group_name_H-M   'P 1'
_cell_length_a   16.74533771
_cell_length_b   16.74533771
_cell_length_c   8.18874164
_cell_angle_alpha   90.00000000
_cell_angle_beta   90.00000000
_cell_angle_gamma   120.00000000
_symmetry_Int_Tables_number   1
_chemical_formula_structural   LiF
_chemical_formula_sum   'Li60 F60'
_cell_volume   1988.54590939
_cell_formula_units_Z   60
loop_
 _symmetry_equiv_pos_site_id
 _symmetry_equiv_pos_as_xyz
  1  'x, y, z'
loop_
 _atom_site_type_symbol
 _atom_site_label
 _atom_site_symmetry_multiplicity
 _atom_site_fract_x
 _atom_site_fract_y
 _atom_site_fract_z
 _atom_site_occupancy
  F  F0  1  0.56294898  0.00000000  0.25000000  1
  F  F1  1  0.00000000  0.56294898  0.25000000  1
  F  F2  1  0.43705102  0.43705102  0.25000000  1
  F  F3  1  0.43705102  0.00000000  0.75000000  1
  F  F4  1  0.00000000  0.43705102  0.75000000  1
  F  F5  1  0.56294898  0.56294898  0.75000000  1
  F  F6  1  0.22961565  0.33333333  0.58333333  1
  F  F7  1  0.66666667  0.89628232  0.58333333  1
  F  F8  1  0.10371768  0.77038435  0.58333333  1
  F  F9  1  0.10371768  0.33333333  0.08333333  1
  F  F10  1  0.66666667  0.77038435  0.08333333  1
  F  F11  1  0.22961565  0.89628232  0.08333333  1
  F  F12  1  0.89628232  0.66666667  0.91666667  1
  F  F13  1  0.33333333  0.22961565  0.91666667  1
  F  F14  1  0.77038435  0.10371768  0.91666667  1
  F  F15  1  0.77038435  0.66666667  0.41666667  1
  F  F16  1  0.33333333  0.10371768  0.41666667  1
  F  F17  1  0.89628232  0.22961565  0.41666667  1
  F  F18  1  0.67061821  -0.00000000  0.25000000  1
  F  F19  1  0.00000000  0.67061821  0.25000000  1
  F  F20  1  0.32938179  0.32938179  0.25000000  1
  F  F21  1  0.32938179  -0.00000000  0.75000000  1
  F  F22  1  0.00000000  0.32938179  0.75000000  1
  F  F23  1  0.67061821  0.67061821  0.75000000  1
  F  F24  1  0.33728488  0.33333333  0.58333333  1
  F  F25  1  0.66666667  0.00395155  0.58333333  1
  F  F26  1  0.99604845  0.66271512  0.58333333  1
  F  F27  1  0.99604845  0.33333333  0.08333333  1
  F  F28  1  0.66666667  0.66271512  0.08333333  1
  F  F29  1  0.33728488  0.00395155  0.08333333  1
  F  F30  1  0.00395155  0.66666667  0.91666667  1
  F  F31  1  0.33333333  0.33728488  0.91666667  1
  F  F32  1  0.66271512  0.99604845  0.91666667  1
  F  F33  1  0.66271512  0.66666667  0.41666667  1
  F  F34  1  0.33333333  0.99604845  0.41666667  1
  F  F35  1  0.00395155  0.33728488  0.41666667  1
  F  F36  1  0.00000000  0.00000000  0.00000000  1
  F  F37  1  0.00000000  0.00000000  0.50000000  1
  F  F38  1  0.66666667  0.33333333  0.33333333  1
  F  F39  1  0.66666667  0.33333333  0.83333333  1
  F  F40  1  0.33333333  0.66666667  0.66666667  1
  F  F41  1  0.33333333  0.66666667  0.16666667  1
  F  F42  1  0.40904743  0.00000000  0.25000000  1
  F  F43  1  0.00000000  0.40904743  0.25000000  1
  F  F44  1  0.59095257  0.59095257  0.25000000  1
  F  F45  1  0.59095257  0.00000000  0.75000000  1
  F  F46  1  0.00000000  0.59095257  0.75000000  1
  F  F47  1  0.40904743  0.40904743  0.75000000  1
  F  F48  1  0.07571410  0.33333333  0.58333333  1
  F  F49  1  0.66666667  0.74238076  0.58333333  1
  F  F50  1  0.25761924  0.92428590  0.58333333  1
  F  F51  1  0.25761924  0.33333333  0.08333333  1
  F  F52  1  0.66666667  0.92428590  0.08333333  1
  F  F53  1  0.07571410  0.74238076  0.08333333  1
  F  F54  1  0.74238076  0.66666667  0.91666667  1
  F  F55  1  0.33333333  0.07571410  0.91666667  1
  F  F56  1  0.92428590  0.25761924  0.91666667  1
  F  F57  1  0.92428590  0.66666667  0.41666667  1
  F  F58  1  0.33333333  0.25761924  0.41666667  1
  F  F59  1  0.74238076  0.07571410  0.41666667  1
  Li  Li60  1  0.71061407  0.88429654  0.20537258  1
  Li  Li61  1  -0.88429654  -0.17368247  0.20537258  1
  Li  Li62  1  0.17368247  -0.71061407  0.20537258  1
  Li  Li63  1  0.88429654  0.71061407  0.29462742  1
  Li  Li64  1  -0.17368247  -0.88429654  0.29462742  1
  Li  Li65  1  -0.71061407  0.17368247  0.29462742  1
  Li  Li66  1  -0.71061407  -0.88429654  -0.20537258  1
  Li  Li67  1  0.88429654  0.17368247  -0.20537258  1
  Li  Li68  1  -0.17368247  0.71061407  -0.20537258  1
  Li  Li69  1  -0.88429654  -0.71061407  0.70537258  1
  Li  Li70  1  0.17368247  0.88429654  0.70537258  1
  Li  Li71  1  0.71061407  -0.17368247  0.70537258  1
  Li  Li72  1  1.37728074  1.21762988  0.53870591  1
  Li  Li73  1  -0.21762988  0.15965086  0.53870591  1
  Li  Li74  1  0.84034914  -0.37728074  0.53870591  1
  Li  Li75  1  1.55096321  1.04394740  0.62796076  1
  Li  Li76  1  0.49298419  -0.55096321  0.62796076  1
  Li  Li77  1  -0.04394740  0.50701581  0.62796076  1
  Li  Li78  1  -0.04394740  -0.55096321  0.12796076  1
  Li  Li79  1  1.55096321  0.50701581  0.12796076  1
  Li  Li80  1  0.49298419  1.04394740  0.12796076  1
  Li  Li81  1  -0.21762988  -0.37728074  1.03870591  1
  Li  Li82  1  0.84034914  1.21762988  1.03870591  1
  Li  Li83  1  1.37728074  0.15965086  1.03870591  1
  Li  Li84  1  1.04394740  1.55096321  0.87203924  1
  Li  Li85  1  -0.55096321  0.49298419  0.87203924  1
  Li  Li86  1  0.50701581  -0.04394740  0.87203924  1
  Li  Li87  1  1.21762988  1.37728074  0.96129409  1
  Li  Li88  1  0.15965086  -0.21762988  0.96129409  1
  Li  Li89  1  -0.37728074  0.84034914  0.96129409  1
  Li  Li90  1  -0.37728074  -0.21762988  0.46129409  1
  Li  Li91  1  1.21762988  0.84034914  0.46129409  1
  Li  Li92  1  0.15965086  1.37728074  0.46129409  1
  Li  Li93  1  -0.55096321  -0.04394740  1.37203924  1
  Li  Li94  1  0.50701581  1.55096321  1.37203924  1
  Li  Li95  1  1.04394740  0.49298419  1.37203924  1
  Li  Li96  1  0.50000000  0.00000000  0.00000000  1
  Li  Li97  1  0.00000000  0.50000000  0.00000000  1
  Li  Li98  1  0.50000000  0.50000000  0.00000000  1
  Li  Li99  1  0.00000000  0.50000000  0.50000000  1
  Li  Li100  1  0.50000000  0.00000000  0.50000000  1
  Li  Li101  1  0.50000000  0.50000000  0.50000000  1
  Li  Li102  1  0.16666667  0.33333333  0.33333333  1
  Li  Li103  1  0.66666667  0.83333333  0.33333333  1
  Li  Li104  1  0.16666667  0.83333333  0.33333333  1
  Li  Li105  1  0.66666667  0.83333333  0.83333333  1
  Li  Li106  1  0.16666667  0.33333333  0.83333333  1
  Li  Li107  1  0.16666667  0.83333333  0.83333333  1
  Li  Li108  1  0.83333333  0.66666667  0.66666667  1
  Li  Li109  1  0.33333333  0.16666667  0.66666667  1
  Li  Li110  1  0.83333333  0.16666667  0.66666667  1
  Li  Li111  1  0.33333333  0.16666667  0.16666667  1
  Li  Li112  1  0.83333333  0.66666667  0.16666667  1
  Li  Li113  1  0.83333333  0.16666667  0.16666667  1
  Li  Li114  1  0.00000000  0.00000000  0.25000000  1
  Li  Li115  1  0.00000000  0.00000000  0.75000000  1
  Li  Li116  1  0.66666667  0.33333333  0.58333333  1
  Li  Li117  1  0.66666667  0.33333333  0.08333333  1
  Li  Li118  1  0.33333333  0.66666667  0.91666667  1
  Li  Li119  1  0.33333333  0.66666667  0.41666667  1
