# generated using pymatgen
data_Li2YTe4P3Se
_symmetry_space_group_name_H-M   'P 1'
_cell_length_a   5.62061519
_cell_length_b   5.81921647
_cell_length_c   7.28215956
_cell_angle_alpha   93.59475112
_cell_angle_beta   98.07099960
_cell_angle_gamma   104.73134532
_symmetry_Int_Tables_number   1
_chemical_formula_structural   Li2YTe4P3Se
_chemical_formula_sum   'Li2 Y1 Te4 P3 Se1'
_cell_volume   226.86334306
_cell_formula_units_Z   1
loop_
 _symmetry_equiv_pos_site_id
 _symmetry_equiv_pos_as_xyz
  1  'x, y, z'
loop_
 _atom_site_type_symbol
 _atom_site_label
 _atom_site_symmetry_multiplicity
 _atom_site_fract_x
 _atom_site_fract_y
 _atom_site_fract_z
 _atom_site_occupancy
  Se  Se0  1  0.00000000  0.00000000  0.00000000  1
  Te  Te1  1  0.50000000  0.50000000  0.50000000  1
  Te  Te2  1  0.25000000  0.25000000  0.25000000  1
  Te  Te3  1  0.75000000  0.25000000  0.00000000  1
  Te  Te4  1  0.25000000  0.75000000  0.50000000  1
  P  P5  1  0.99323688  0.06696703  0.56813337  1
  P  P6  1  0.30840803  0.20590912  0.74567147  1
  P  P7  1  0.46921663  0.37025120  0.11930492  1
  Li  Li8  1  0.86097945  0.74763201  0.56596350  1
  Li  Li9  1  0.05606650  0.35950847  0.77887575  1
  Y  Y10  1  0.97877305  0.34985504  0.60040442  1
