# generated using pymatgen
data_LiF
_symmetry_space_group_name_H-M   'P 1'
_cell_length_a   8.25188329
_cell_length_b   8.25188329
_cell_length_c   14.74576024
_cell_angle_alpha   90.00000000
_cell_angle_beta   90.00000000
_cell_angle_gamma   90.00000000
_symmetry_Int_Tables_number   1
_chemical_formula_structural   LiF
_chemical_formula_sum   'Li46 F46'
_cell_volume   1004.09157307
_cell_formula_units_Z   46
loop_
 _symmetry_equiv_pos_site_id
 _symmetry_equiv_pos_as_xyz
  1  'x, y, z'
loop_
 _atom_site_type_symbol
 _atom_site_label
 _atom_site_symmetry_multiplicity
 _atom_site_fract_x
 _atom_site_fract_y
 _atom_site_fract_z
 _atom_site_occupancy
  F  F0  1  0.82472790  0.24233480  0.00000000  1
  F  F1  1  0.17527210  0.75766520  0.00000000  1
  F  F2  1  0.75766520  0.82472790  0.00000000  1
  F  F3  1  0.24233480  0.17527210  0.00000000  1
  F  F4  1  0.17527210  0.24233480  0.00000000  1
  F  F5  1  0.82472790  0.75766520  0.00000000  1
  F  F6  1  0.24233480  0.82472790  0.00000000  1
  F  F7  1  0.75766520  0.17527210  -0.00000000  1
  F  F8  1  0.83897514  0.83897514  0.86986478  1
  F  F9  1  0.16102486  0.16102486  0.86986478  1
  F  F10  1  0.16102486  0.83897514  0.86986478  1
  F  F11  1  0.83897514  0.16102486  0.86986478  1
  F  F12  1  0.16102486  0.83897514  0.13013522  1
  F  F13  1  0.83897514  0.16102486  0.13013522  1
  F  F14  1  0.83897514  0.83897514  0.13013522  1
  F  F15  1  0.16102486  0.16102486  0.13013522  1
  F  F16  1  0.74375628  0.15444118  0.12599096  1
  F  F17  1  0.25624372  0.84555882  0.12599096  1
  F  F18  1  0.84555882  0.74375628  0.12599096  1
  F  F19  1  0.15444118  0.25624372  0.12599096  1
  F  F20  1  0.25624372  0.15444118  0.87400904  1
  F  F21  1  0.74375628  0.84555882  0.87400904  1
  F  F22  1  0.15444118  0.74375628  0.87400904  1
  F  F23  1  0.84555882  0.25624372  0.87400904  1
  F  F24  1  0.25624372  0.84555882  0.87400904  1
  F  F25  1  0.74375628  0.15444118  0.87400904  1
  F  F26  1  0.15444118  0.25624372  0.87400904  1
  F  F27  1  0.84555882  0.74375628  0.87400904  1
  F  F28  1  0.74375628  0.84555882  0.12599096  1
  F  F29  1  0.25624372  0.15444118  0.12599096  1
  F  F30  1  0.84555882  0.25624372  0.12599096  1
  F  F31  1  0.15444118  0.74375628  0.12599096  1
  F  F32  1  0.36464599  0.50000000  0.71570666  1
  F  F33  1  0.63535401  0.50000000  0.71570666  1
  F  F34  1  0.50000000  0.36464599  0.71570666  1
  F  F35  1  0.50000000  0.63535401  0.71570666  1
  F  F36  1  0.63535401  0.50000000  0.28429334  1
  F  F37  1  0.36464599  0.50000000  0.28429334  1
  F  F38  1  0.50000000  0.36464599  0.28429334  1
  F  F39  1  0.50000000  0.63535401  0.28429334  1
  F  F40  1  0.17603240  0.50000000  0.50000000  1
  F  F41  1  0.82396760  0.50000000  0.50000000  1
  F  F42  1  0.50000000  0.17603240  0.50000000  1
  F  F43  1  0.50000000  0.82396760  0.50000000  1
  F  F44  1  0.00000000  0.50000000  0.50000000  1
  F  F45  1  0.50000000  0.00000000  0.50000000  1
  Li  Li46  1  0.36384757  0.50000000  0.42105564  1
  Li  Li47  1  0.63615243  0.50000000  0.42105564  1
  Li  Li48  1  0.50000000  0.36384757  0.42105564  1
  Li  Li49  1  0.50000000  0.63615243  0.42105564  1
  Li  Li50  1  0.63615243  0.50000000  0.57894436  1
  Li  Li51  1  0.36384757  0.50000000  0.57894436  1
  Li  Li52  1  0.50000000  0.36384757  0.57894436  1
  Li  Li53  1  0.50000000  0.63615243  0.57894436  1
  Li  Li54  1  0.79066263  -0.00000000  0.35880125  1
  Li  Li55  1  0.20933737  0.00000000  0.35880125  1
  Li  Li56  1  0.00000000  0.79066263  0.35880125  1
  Li  Li57  1  0.00000000  0.20933737  0.35880125  1
  Li  Li58  1  0.20933737  0.00000000  0.64119875  1
  Li  Li59  1  0.79066263  -0.00000000  0.64119875  1
  Li  Li60  1  0.00000000  0.79066263  0.64119875  1
  Li  Li61  1  0.00000000  0.20933737  0.64119875  1
  Li  Li62  1  0.68469182  0.87245124  0.38452478  1
  Li  Li63  1  -0.68469182  -0.87245124  0.38452478  1
  Li  Li64  1  -0.87245124  0.68469182  0.38452478  1
  Li  Li65  1  0.87245124  -0.68469182  0.38452478  1
  Li  Li66  1  -0.68469182  0.87245124  -0.38452478  1
  Li  Li67  1  0.68469182  -0.87245124  -0.38452478  1
  Li  Li68  1  0.87245124  0.68469182  -0.38452478  1
  Li  Li69  1  -0.87245124  -0.68469182  -0.38452478  1
  Li  Li70  1  -0.68469182  -0.87245124  -0.38452478  1
  Li  Li71  1  0.68469182  0.87245124  -0.38452478  1
  Li  Li72  1  0.87245124  -0.68469182  -0.38452478  1
  Li  Li73  1  -0.87245124  0.68469182  -0.38452478  1
  Li  Li74  1  0.68469182  -0.87245124  0.38452478  1
  Li  Li75  1  -0.68469182  0.87245124  0.38452478  1
  Li  Li76  1  -0.87245124  -0.68469182  0.38452478  1
  Li  Li77  1  0.87245124  0.68469182  0.38452478  1
  Li  Li78  1  0.85181220  0.85181220  0.79608703  1
  Li  Li79  1  0.14818780  0.14818780  0.79608703  1
  Li  Li80  1  0.14818780  0.85181220  0.79608703  1
  Li  Li81  1  0.85181220  0.14818780  0.79608703  1
  Li  Li82  1  0.14818780  0.85181220  0.20391297  1
  Li  Li83  1  0.85181220  0.14818780  0.20391297  1
  Li  Li84  1  0.85181220  0.85181220  0.20391297  1
  Li  Li85  1  0.14818780  0.14818780  0.20391297  1
  Li  Li86  1  0.88331616  0.88331616  0.00000000  1
  Li  Li87  1  0.11668384  0.11668384  -0.00000000  1
  Li  Li88  1  0.11668384  0.88331616  0.00000000  1
  Li  Li89  1  0.88331616  0.11668384  0.00000000  1
  Li  Li90  1  0.00000000  0.50000000  0.00000000  1
  Li  Li91  1  0.50000000  0.00000000  0.00000000  1
