# generated using pymatgen
data_LiF
_symmetry_space_group_name_H-M   'P 1'
_cell_length_a   8.92900366
_cell_length_b   10.87042540
_cell_length_c   10.16741763
_cell_angle_alpha   90.00000000
_cell_angle_beta   90.00000000
_cell_angle_gamma   90.00000000
_symmetry_Int_Tables_number   1
_chemical_formula_structural   LiF
_chemical_formula_sum   'Li54 F54'
_cell_volume   986.87058359
_cell_formula_units_Z   54
loop_
 _symmetry_equiv_pos_site_id
 _symmetry_equiv_pos_as_xyz
  1  'x, y, z'
loop_
 _atom_site_type_symbol
 _atom_site_label
 _atom_site_symmetry_multiplicity
 _atom_site_fract_x
 _atom_site_fract_y
 _atom_site_fract_z
 _atom_site_occupancy
  F  F0  1  0.65280102  0.51032428  -0.00000000  1
  F  F1  1  0.34719898  0.48967572  0.00000000  1
  F  F2  1  0.84719898  0.01032428  0.00000000  1
  F  F3  1  0.15280102  0.98967572  -0.00000000  1
  F  F4  1  0.27055223  0.00963992  0.46136020  1
  F  F5  1  0.72944777  0.99036008  0.46136020  1
  F  F6  1  0.22944777  0.50963992  0.53863980  1
  F  F7  1  0.77055223  0.49036008  0.53863980  1
  F  F8  1  0.72944777  0.99036008  0.53863980  1
  F  F9  1  0.27055223  0.00963992  0.53863980  1
  F  F10  1  0.77055223  0.49036008  0.46136020  1
  F  F11  1  0.22944777  0.50963992  0.46136020  1
  F  F12  1  0.21593543  0.46777683  0.59823008  1
  F  F13  1  0.78406457  0.53222317  0.59823008  1
  F  F14  1  0.28406457  0.96777683  0.40176992  1
  F  F15  1  0.71593543  0.03222317  0.40176992  1
  F  F16  1  0.78406457  0.53222317  0.40176992  1
  F  F17  1  0.21593543  0.46777683  0.40176992  1
  F  F18  1  0.71593543  0.03222317  0.59823008  1
  F  F19  1  0.28406457  0.96777683  0.59823008  1
  F  F20  1  0.55028171  0.94049681  0.90415873  1
  F  F21  1  0.44971829  0.05950319  0.90415873  1
  F  F22  1  0.94971829  0.44049681  0.09584127  1
  F  F23  1  0.05028171  0.55950319  0.09584127  1
  F  F24  1  0.44971829  0.05950319  0.09584127  1
  F  F25  1  0.55028171  0.94049681  0.09584127  1
  F  F26  1  0.05028171  0.55950319  0.90415873  1
  F  F27  1  0.94971829  0.44049681  0.90415873  1
  F  F28  1  0.52305446  0.94667439  0.52848986  1
  F  F29  1  0.47694554  0.05332561  0.52848986  1
  F  F30  1  0.97694554  0.44667439  0.47151014  1
  F  F31  1  0.02305446  0.55332561  0.47151014  1
  F  F32  1  0.47694554  0.05332561  0.47151014  1
  F  F33  1  0.52305446  0.94667439  0.47151014  1
  F  F34  1  0.02305446  0.55332561  0.52848986  1
  F  F35  1  0.97694554  0.44667439  0.52848986  1
  F  F36  1  0.00000000  0.00000000  0.50000000  1
  F  F37  1  0.50000000  0.50000000  0.50000000  1
  F  F38  1  0.00000000  0.50000000  0.11863354  1
  F  F39  1  0.50000000  0.00000000  0.88136646  1
  F  F40  1  0.00000000  0.50000000  0.88136646  1
  F  F41  1  0.50000000  0.00000000  0.11863354  1
  F  F42  1  0.34563788  0.66921338  0.68950810  1
  F  F43  1  0.65436212  0.33078662  0.68950810  1
  F  F44  1  0.15436212  0.16921338  0.31049190  1
  F  F45  1  0.84563788  0.83078662  0.31049190  1
  F  F46  1  0.65436212  0.33078662  0.31049190  1
  F  F47  1  0.34563788  0.66921338  0.31049190  1
  F  F48  1  0.84563788  0.83078662  0.68950810  1
  F  F49  1  0.15436212  0.16921338  0.68950810  1
  F  F50  1  0.93662217  0.69298971  -0.00000000  1
  F  F51  1  0.06337783  0.30701029  0.00000000  1
  F  F52  1  0.56337783  0.19298971  -0.00000000  1
  F  F53  1  0.43662217  0.80701029  0.00000000  1
  Li  Li54  1  0.68169347  0.17468812  0.31380311  1
  Li  Li55  1  -0.68169347  -0.17468812  0.31380311  1
  Li  Li56  1  -0.18169347  0.67468812  -0.31380311  1
  Li  Li57  1  1.18169347  0.32531188  -0.31380311  1
  Li  Li58  1  -0.68169347  -0.17468812  -0.31380311  1
  Li  Li59  1  0.68169347  0.17468812  -0.31380311  1
  Li  Li60  1  1.18169347  0.32531188  0.31380311  1
  Li  Li61  1  -0.18169347  0.67468812  0.31380311  1
  Li  Li62  1  0.00000000  0.50000000  0.35940983  1
  Li  Li63  1  0.50000000  0.00000000  0.64059017  1
  Li  Li64  1  0.00000000  0.50000000  0.64059017  1
  Li  Li65  1  0.50000000  0.00000000  0.35940983  1
  Li  Li66  1  0.72895245  0.80501568  0.34892761  1
  Li  Li67  1  0.27104755  0.19498432  0.34892761  1
  Li  Li68  1  0.77104755  0.30501568  0.65107239  1
  Li  Li69  1  0.22895245  0.69498432  0.65107239  1
  Li  Li70  1  0.27104755  0.19498432  0.65107239  1
  Li  Li71  1  0.72895245  0.80501568  0.65107239  1
  Li  Li72  1  0.22895245  0.69498432  0.34892761  1
  Li  Li73  1  0.77104755  0.30501568  0.34892761  1
  Li  Li74  1  0.25482217  0.15861153  0.00000000  1
  Li  Li75  1  0.74517783  0.84138847  -0.00000000  1
  Li  Li76  1  0.24517783  0.65861153  0.00000000  1
  Li  Li77  1  0.75482217  0.34138847  0.00000000  1
  Li  Li78  1  0.45542817  0.39068594  -0.00000000  1
  Li  Li79  1  0.54457183  0.60931406  0.00000000  1
  Li  Li80  1  0.04457183  0.89068594  -0.00000000  1
  Li  Li81  1  0.95542817  0.10931406  0.00000000  1
  Li  Li82  1  0.47457908  0.60813040  0.32737425  1
  Li  Li83  1  0.52542092  0.39186960  0.32737425  1
  Li  Li84  1  0.02542092  0.10813040  0.67262575  1
  Li  Li85  1  0.97457908  0.89186960  0.67262575  1
  Li  Li86  1  0.52542092  0.39186960  0.67262575  1
  Li  Li87  1  0.47457908  0.60813040  0.67262575  1
  Li  Li88  1  0.97457908  0.89186960  0.32737425  1
  Li  Li89  1  0.02542092  0.10813040  0.32737425  1
  Li  Li90  1  0.65303077  0.25241402  0.42022257  1
  Li  Li91  1  0.34696923  0.74758598  0.42022257  1
  Li  Li92  1  0.84696923  0.75241402  0.57977743  1
  Li  Li93  1  0.15303077  0.24758598  0.57977743  1
  Li  Li94  1  0.34696923  0.74758598  0.57977743  1
  Li  Li95  1  0.65303077  0.25241402  0.57977743  1
  Li  Li96  1  0.15303077  0.24758598  0.42022257  1
  Li  Li97  1  0.84696923  0.75241402  0.42022257  1
  Li  Li98  1  0.00000000  0.50000000  0.00000000  1
  Li  Li99  1  0.50000000  0.00000000  0.00000000  1
  Li  Li100  1  0.36458323  0.33043327  0.78409194  1
  Li  Li101  1  0.63541677  0.66956673  0.78409194  1
  Li  Li102  1  0.13541677  0.83043327  0.21590806  1
  Li  Li103  1  0.86458323  0.16956673  0.21590806  1
  Li  Li104  1  0.63541677  0.66956673  0.21590806  1
  Li  Li105  1  0.36458323  0.33043327  0.21590806  1
  Li  Li106  1  0.86458323  0.16956673  0.78409194  1
  Li  Li107  1  0.13541677  0.83043327  0.78409194  1
