# generated using pymatgen
data_Li2Si4Te3F12
_symmetry_space_group_name_H-M   'P 1'
_cell_length_a   7.17022811
_cell_length_b   7.17022811
_cell_length_c   25.02099704
_cell_angle_alpha   90.00000000
_cell_angle_beta   90.00000000
_cell_angle_gamma   90.00000000
_symmetry_Int_Tables_number   1
_chemical_formula_structural   Li2Si4Te3F12
_chemical_formula_sum   'Li8 Si16 Te12 F48'
_cell_volume   1286.38378225
_cell_formula_units_Z   4
loop_
 _symmetry_equiv_pos_site_id
 _symmetry_equiv_pos_as_xyz
  1  'x, y, z'
loop_
 _atom_site_type_symbol
 _atom_site_label
 _atom_site_symmetry_multiplicity
 _atom_site_fract_x
 _atom_site_fract_y
 _atom_site_fract_z
 _atom_site_occupancy
  F  F0  1  0.27058283  0.36950516  0.08768715  1
  F  F1  1  0.22941717  -0.36950516  0.58768715  1
  F  F2  1  -0.11950516  1.02058283  0.33768715  1
  F  F3  1  0.61950516  -0.02058283  0.83768715  1
  F  F4  1  0.22941717  0.36950516  0.41231285  1
  F  F5  1  0.27058283  -0.36950516  -0.08768715  1
  F  F6  1  0.61950516  1.02058283  0.16231285  1
  F  F7  1  -0.11950516  -0.02058283  0.66231285  1
  F  F8  1  -0.27058283  -0.36950516  -0.08768715  1
  F  F9  1  0.77058283  0.36950516  0.41231285  1
  F  F10  1  1.11950516  -0.02058283  0.66231285  1
  F  F11  1  0.38049484  1.02058283  0.16231285  1
  F  F12  1  0.77058283  -0.36950516  0.58768715  1
  F  F13  1  -0.27058283  0.36950516  0.08768715  1
  F  F14  1  0.38049484  -0.02058283  0.83768715  1
  F  F15  1  1.11950516  1.02058283  0.33768715  1
  F  F16  1  0.77058283  0.86950516  0.58768715  1
  F  F17  1  0.72941717  0.13049484  1.08768715  1
  F  F18  1  0.38049484  1.52058283  0.83768715  1
  F  F19  1  1.11950516  0.47941717  1.33768715  1
  F  F20  1  0.72941717  0.86950516  0.91231285  1
  F  F21  1  0.77058283  0.13049484  0.41231285  1
  F  F22  1  1.11950516  1.52058283  0.66231285  1
  F  F23  1  0.38049484  0.47941717  1.16231285  1
  F  F24  1  0.22941717  0.13049484  0.41231285  1
  F  F25  1  1.27058283  0.86950516  0.91231285  1
  F  F26  1  1.61950516  0.47941717  1.16231285  1
  F  F27  1  0.88049484  1.52058283  0.66231285  1
  F  F28  1  1.27058283  0.13049484  1.08768715  1
  F  F29  1  0.22941717  0.86950516  0.58768715  1
  F  F30  1  0.88049484  0.47941717  1.33768715  1
  F  F31  1  1.61950516  1.52058283  0.83768715  1
  F  F32  1  0.06279792  0.31279792  0.87500000  1
  F  F33  1  0.43720208  0.68720208  0.37500000  1
  F  F34  1  0.93720208  0.81279792  0.12500000  1
  F  F35  1  0.56279792  0.18720208  0.62500000  1
  F  F36  1  0.93720208  0.68720208  0.12500000  1
  F  F37  1  0.56279792  0.31279792  0.62500000  1
  F  F38  1  0.06279792  0.18720208  0.87500000  1
  F  F39  1  0.43720208  0.81279792  0.37500000  1
  F  F40  1  0.56279792  0.81279792  0.37500000  1
  F  F41  1  0.93720208  0.18720208  0.87500000  1
  F  F42  1  0.43720208  0.31279792  0.62500000  1
  F  F43  1  0.06279792  0.68720208  0.12500000  1
  F  F44  1  0.43720208  0.18720208  0.62500000  1
  F  F45  1  0.06279792  0.81279792  0.12500000  1
  F  F46  1  0.56279792  0.68720208  0.37500000  1
  F  F47  1  0.93720208  0.31279792  0.87500000  1
  Li  Li48  1  0.00000000  0.00000000  0.50000000  1
  Li  Li49  1  0.50000000  0.00000000  0.00000000  1
  Li  Li50  1  0.25000000  0.75000000  0.75000000  1
  Li  Li51  1  0.25000000  0.25000000  0.25000000  1
  Li  Li52  1  0.50000000  0.50000000  0.00000000  1
  Li  Li53  1  0.00000000  0.50000000  0.50000000  1
  Li  Li54  1  0.75000000  0.25000000  0.25000000  1
  Li  Li55  1  0.75000000  0.75000000  0.75000000  1
  Si  Si56  1  0.16394767  0.00000000  0.00000000  1
  Si  Si57  1  0.33605233  0.00000000  0.50000000  1
  Si  Si58  1  0.25000000  0.91394767  0.25000000  1
  Si  Si59  1  0.25000000  0.08605233  0.75000000  1
  Si  Si60  1  0.83605233  0.00000000  0.00000000  1
  Si  Si61  1  0.66394767  0.00000000  0.50000000  1
  Si  Si62  1  0.75000000  0.08605233  0.75000000  1
  Si  Si63  1  0.75000000  0.91394767  0.25000000  1
  Si  Si64  1  0.66394767  0.50000000  0.50000000  1
  Si  Si65  1  0.83605233  0.50000000  -0.00000000  1
  Si  Si66  1  0.75000000  0.41394767  0.75000000  1
  Si  Si67  1  0.75000000  0.58605233  0.25000000  1
  Si  Si68  1  0.33605233  0.50000000  0.50000000  1
  Si  Si69  1  0.16394767  0.50000000  0.00000000  1
  Si  Si70  1  0.25000000  0.58605233  0.25000000  1
  Si  Si71  1  0.25000000  0.41394767  0.75000000  1
  Te  Te72  1  0.00000000  0.25000000  0.11916850  1
  Te  Te73  1  0.00000000  0.75000000  0.36916850  1
  Te  Te74  1  0.50000000  0.25000000  0.38083150  1
  Te  Te75  1  0.50000000  0.75000000  0.13083150  1
  Te  Te76  1  0.50000000  0.75000000  0.61916850  1
  Te  Te77  1  0.50000000  0.25000000  0.86916850  1
  Te  Te78  1  0.00000000  0.75000000  0.88083150  1
  Te  Te79  1  0.00000000  0.25000000  0.63083150  1
  Te  Te80  1  0.00000000  0.25000000  0.37500000  1
  Te  Te81  1  0.00000000  0.75000000  0.62500000  1
  Te  Te82  1  0.50000000  0.75000000  0.87500000  1
  Te  Te83  1  0.50000000  0.25000000  0.12500000  1
