# generated using pymatgen
data_LiY2MoP2
_symmetry_space_group_name_H-M   'P 1'
_cell_length_a   5.49971206
_cell_length_b   5.68274709
_cell_length_c   7.21911244
_cell_angle_alpha   93.86123921
_cell_angle_beta   97.88719107
_cell_angle_gamma   104.69076601
_symmetry_Int_Tables_number   1
_chemical_formula_structural   LiY2MoP2
_chemical_formula_sum   'Li1 Y2 Mo1 P2'
_cell_volume   214.95003145
_cell_formula_units_Z   1
loop_
 _symmetry_equiv_pos_site_id
 _symmetry_equiv_pos_as_xyz
  1  'x, y, z'
loop_
 _atom_site_type_symbol
 _atom_site_label
 _atom_site_symmetry_multiplicity
 _atom_site_fract_x
 _atom_site_fract_y
 _atom_site_fract_z
 _atom_site_occupancy
  Y  Y0  1  0.00000000  0.00000000  0.00000000  1
  Y  Y1  1  0.33300000  0.66700000  0.25000000  1
  P  P2  1  0.66700000  0.33300000  0.50000000  1
  P  P3  1  0.00000000  0.00000000  0.75000000  1
  Mo  Mo4  1  0.74441298  0.66786604  0.13249532  1
  Li  Li5  1  0.29048539  0.66183525  0.45146926  1
