# generated using pymatgen
data_LiF
_symmetry_space_group_name_H-M   'P 1'
_cell_length_a   16.86747183
_cell_length_b   5.26576082
_cell_length_c   9.24193146
_cell_angle_alpha   90.00000000
_cell_angle_beta   90.00000000
_cell_angle_gamma   90.00000000
_symmetry_Int_Tables_number   1
_chemical_formula_structural   LiF
_chemical_formula_sum   'Li24 F24'
_cell_volume   820.86902090
_cell_formula_units_Z   24
loop_
 _symmetry_equiv_pos_site_id
 _symmetry_equiv_pos_as_xyz
  1  'x, y, z'
loop_
 _atom_site_type_symbol
 _atom_site_label
 _atom_site_symmetry_multiplicity
 _atom_site_fract_x
 _atom_site_fract_y
 _atom_site_fract_z
 _atom_site_occupancy
  F  F0  1  0.83857075  0.61205448  0.36874781  1
  F  F1  1  0.66142925  0.38794552  0.86874781  1
  F  F2  1  0.16142925  0.11205448  0.63125219  1
  F  F3  1  0.33857075  0.88794552  0.13125219  1
  F  F4  1  0.16142925  0.38794552  0.63125219  1
  F  F5  1  0.33857075  0.61205448  0.13125219  1
  F  F6  1  0.83857075  0.88794552  0.36874781  1
  F  F7  1  0.66142925  0.11205448  0.86874781  1
  F  F8  1  0.78971523  0.34314568  0.78538165  1
  F  F9  1  0.71028477  0.65685432  0.28538165  1
  F  F10  1  0.21028477  0.84314568  0.21461835  1
  F  F11  1  0.28971523  0.15685432  0.71461835  1
  F  F12  1  0.21028477  0.65685432  0.21461835  1
  F  F13  1  0.28971523  0.34314568  0.71461835  1
  F  F14  1  0.78971523  0.15685432  0.78538165  1
  F  F15  1  0.71028477  0.84314568  0.28538165  1
  F  F16  1  0.61477220  0.25000000  0.14703044  1
  F  F17  1  0.88522780  0.75000000  0.64703044  1
  F  F18  1  0.38522780  0.75000000  0.85296956  1
  F  F19  1  0.11477220  0.25000000  0.35296956  1
  F  F20  1  0.00000000  0.00000000  0.50000000  1
  F  F21  1  0.50000000  0.00000000  0.00000000  1
  F  F22  1  0.00000000  0.50000000  0.50000000  1
  F  F23  1  0.50000000  0.50000000  0.00000000  1
  Li  Li24  1  0.83213537  0.93603560  0.05836349  1
  Li  Li25  1  -0.33213537  -0.93603560  0.55836349  1
  Li  Li26  1  -0.83213537  1.43603560  -0.05836349  1
  Li  Li27  1  1.33213537  -0.43603560  0.44163651  1
  Li  Li28  1  -0.83213537  -0.93603560  -0.05836349  1
  Li  Li29  1  1.33213537  0.93603560  0.44163651  1
  Li  Li30  1  0.83213537  -0.43603560  0.05836349  1
  Li  Li31  1  -0.33213537  1.43603560  0.55836349  1
  Li  Li32  1  0.52185834  0.25000000  0.60058331  1
  Li  Li33  1  0.97814166  0.75000000  0.10058331  1
  Li  Li34  1  0.47814166  0.75000000  0.39941669  1
  Li  Li35  1  0.02185834  0.25000000  0.89941669  1
  Li  Li36  1  0.00000000  0.00000000  0.00000000  1
  Li  Li37  1  0.50000000  0.00000000  0.50000000  1
  Li  Li38  1  0.00000000  0.50000000  0.00000000  1
  Li  Li39  1  0.50000000  0.50000000  0.50000000  1
  Li  Li40  1  0.41908179  0.25000000  0.52546641  1
  Li  Li41  1  0.08091821  0.75000000  0.02546641  1
  Li  Li42  1  0.58091821  0.75000000  0.47453359  1
  Li  Li43  1  0.91908179  0.25000000  0.97453359  1
  Li  Li44  1  0.04180025  0.25000000  0.69796105  1
  Li  Li45  1  0.45819975  0.75000000  0.19796105  1
  Li  Li46  1  0.95819975  0.75000000  0.30203895  1
  Li  Li47  1  0.54180025  0.25000000  0.80203895  1
