# generated using pymatgen
data_Li3Y2P3Se
_symmetry_space_group_name_H-M   'P 1'
_cell_length_a   4.91060838
_cell_length_b   5.23290335
_cell_length_c   6.40694428
_cell_angle_alpha   92.42924009
_cell_angle_beta   96.65233814
_cell_angle_gamma   101.40177868
_symmetry_Int_Tables_number   1
_chemical_formula_structural   Li3Y2P3Se
_chemical_formula_sum   'Li3 Y2 P3 Se1'
_cell_volume   159.94112218
_cell_formula_units_Z   1
loop_
 _symmetry_equiv_pos_site_id
 _symmetry_equiv_pos_as_xyz
  1  'x, y, z'
loop_
 _atom_site_type_symbol
 _atom_site_label
 _atom_site_symmetry_multiplicity
 _atom_site_fract_x
 _atom_site_fract_y
 _atom_site_fract_z
 _atom_site_occupancy
  Se  Se0  1  0.12500000  0.00000000  0.25000000  1
  P  P1  1  0.00000000  0.00000000  0.00000000  1
  P  P2  1  0.37500000  0.00000000  0.25000000  1
  P  P3  1  0.25000000  0.25000000  0.25000000  1
  Li  Li4  1  0.00000000  0.25000000  0.12500000  1
  Li  Li5  1  0.57245744  0.39273298  0.56143955  1
  Li  Li6  1  0.41876230  0.87761141  0.04734385  1
  Y  Y7  1  0.76372614  0.00347910  0.66042755  1
  Y  Y8  1  0.84479785  0.90520942  0.95270906  1
