# generated using pymatgen
data_LiF
_symmetry_space_group_name_H-M   'P 1'
_cell_length_a   9.29340712
_cell_length_b   6.50188802
_cell_length_c   13.83682293
_cell_angle_alpha   90.00000000
_cell_angle_beta   90.00000000
_cell_angle_gamma   90.00000000
_symmetry_Int_Tables_number   1
_chemical_formula_structural   LiF
_chemical_formula_sum   'Li24 F24'
_cell_volume   836.08576964
_cell_formula_units_Z   24
loop_
 _symmetry_equiv_pos_site_id
 _symmetry_equiv_pos_as_xyz
  1  'x, y, z'
loop_
 _atom_site_type_symbol
 _atom_site_label
 _atom_site_symmetry_multiplicity
 _atom_site_fract_x
 _atom_site_fract_y
 _atom_site_fract_z
 _atom_site_occupancy
  F  F0  1  0.24892185  0.13275907  0.72047019  1
  F  F1  1  0.25107815  0.86724093  0.22047019  1
  F  F2  1  0.75107815  0.63275907  0.27952981  1
  F  F3  1  0.74892185  0.36724093  0.77952981  1
  F  F4  1  0.75107815  0.86724093  0.27952981  1
  F  F5  1  0.74892185  0.13275907  0.77952981  1
  F  F6  1  0.24892185  0.36724093  0.72047019  1
  F  F7  1  0.25107815  0.63275907  0.22047019  1
  F  F8  1  0.00000000  0.00000000  0.50000000  1
  F  F9  1  0.50000000  0.00000000  -0.00000000  1
  F  F10  1  0.00000000  0.50000000  0.50000000  1
  F  F11  1  0.50000000  0.50000000  -0.00000000  1
  F  F12  1  0.21205311  0.50605444  0.27253695  1
  F  F13  1  0.28794689  0.49394556  0.77253695  1
  F  F14  1  0.78794689  0.00605444  0.72746305  1
  F  F15  1  0.71205311  0.99394556  0.22746305  1
  F  F16  1  0.78794689  0.49394556  0.72746305  1
  F  F17  1  0.71205311  0.50605444  0.22746305  1
  F  F18  1  0.21205311  0.99394556  0.27253695  1
  F  F19  1  0.28794689  0.00605444  0.77253695  1
  F  F20  1  0.91198944  0.25000000  0.76144938  1
  F  F21  1  0.58801056  0.75000000  0.26144938  1
  F  F22  1  0.08801056  0.75000000  0.23855062  1
  F  F23  1  0.41198944  0.25000000  0.73855062  1
  Li  Li24  1  0.92621671  0.45106620  0.89554907  1
  Li  Li25  1  -0.42621671  -0.45106620  1.39554907  1
  Li  Li26  1  -0.92621671  0.95106620  -0.89554907  1
  Li  Li27  1  1.42621671  0.04893380  -0.39554907  1
  Li  Li28  1  -0.92621671  -0.45106620  -0.89554907  1
  Li  Li29  1  1.42621671  0.45106620  -0.39554907  1
  Li  Li30  1  0.92621671  0.04893380  0.89554907  1
  Li  Li31  1  -0.42621671  0.95106620  1.39554907  1
  Li  Li32  1  0.21627317  0.25000000  0.06050545  1
  Li  Li33  1  0.28372683  0.75000000  0.56050545  1
  Li  Li34  1  0.78372683  0.75000000  0.93949455  1
  Li  Li35  1  0.71627317  0.25000000  0.43949455  1
  Li  Li36  1  0.79880550  0.25000000  0.97537192  1
  Li  Li37  1  0.70119450  0.75000000  0.47537192  1
  Li  Li38  1  0.20119450  0.75000000  0.02462808  1
  Li  Li39  1  0.29880550  0.25000000  0.52462808  1
  Li  Li40  1  0.56885692  0.47744135  0.61941077  1
  Li  Li41  1  0.93114308  0.52255865  0.11941077  1
  Li  Li42  1  0.43114308  0.97744135  0.38058923  1
  Li  Li43  1  0.06885692  0.02255865  0.88058923  1
  Li  Li44  1  0.43114308  0.52255865  0.38058923  1
  Li  Li45  1  0.06885692  0.47744135  0.88058923  1
  Li  Li46  1  0.56885692  0.02255865  0.61941077  1
  Li  Li47  1  0.93114308  0.97744135  0.11941077  1
