# generated using pymatgen
data_LiF
_symmetry_space_group_name_H-M   'P 1'
_cell_length_a   8.42087147
_cell_length_b   9.87035576
_cell_length_c   10.09301208
_cell_angle_alpha   90.00000000
_cell_angle_beta   90.00000000
_cell_angle_gamma   90.00000000
_symmetry_Int_Tables_number   1
_chemical_formula_structural   LiF
_chemical_formula_sum   'Li24 F24'
_cell_volume   838.90085635
_cell_formula_units_Z   24
loop_
 _symmetry_equiv_pos_site_id
 _symmetry_equiv_pos_as_xyz
  1  'x, y, z'
loop_
 _atom_site_type_symbol
 _atom_site_label
 _atom_site_symmetry_multiplicity
 _atom_site_fract_x
 _atom_site_fract_y
 _atom_site_fract_z
 _atom_site_occupancy
  F  F0  1  0.93747491  0.11470045  0.41006943  1
  F  F1  1  0.56252509  0.88529955  0.91006943  1
  F  F2  1  0.06252509  0.61470045  0.58993057  1
  F  F3  1  0.43747491  0.38529955  0.08993057  1
  F  F4  1  0.06252509  0.88529955  0.58993057  1
  F  F5  1  0.43747491  0.11470045  0.08993057  1
  F  F6  1  0.93747491  0.38529955  0.41006943  1
  F  F7  1  0.56252509  0.61470045  0.91006943  1
  F  F8  1  0.96866864  0.16950151  0.99036824  1
  F  F9  1  0.53133136  0.83049849  0.49036824  1
  F  F10  1  0.03133136  0.66950151  0.00963176  1
  F  F11  1  0.46866864  0.33049849  0.50963176  1
  F  F12  1  0.03133136  0.83049849  0.00963176  1
  F  F13  1  0.46866864  0.16950151  0.50963176  1
  F  F14  1  0.96866864  0.33049849  0.99036824  1
  F  F15  1  0.53133136  0.66950151  0.49036824  1
  F  F16  1  0.93530018  0.89723664  0.30459935  1
  F  F17  1  0.56469982  0.10276336  0.80459935  1
  F  F18  1  0.06469982  0.39723664  0.69540065  1
  F  F19  1  0.43530018  0.60276336  0.19540065  1
  F  F20  1  0.06469982  0.10276336  0.69540065  1
  F  F21  1  0.43530018  0.89723664  0.19540065  1
  F  F22  1  0.93530018  0.60276336  0.30459935  1
  F  F23  1  0.56469982  0.39723664  0.80459935  1
  Li  Li24  1  0.00000000  0.00000000  0.00000000  1
  Li  Li25  1  0.50000000  0.00000000  0.50000000  1
  Li  Li26  1  0.00000000  0.50000000  0.00000000  1
  Li  Li27  1  0.50000000  0.50000000  0.50000000  1
  Li  Li28  1  0.25739410  0.25000000  0.35973329  1
  Li  Li29  1  0.24260590  0.75000000  0.85973329  1
  Li  Li30  1  0.74260590  0.75000000  0.64026671  1
  Li  Li31  1  0.75739410  0.25000000  0.14026671  1
  Li  Li32  1  0.09116577  0.96765271  0.90294815  1
  Li  Li33  1  0.40883423  -0.96765271  1.40294815  1
  Li  Li34  1  -0.09116577  1.46765271  -0.90294815  1
  Li  Li35  1  0.59116577  -0.46765271  -0.40294815  1
  Li  Li36  1  -0.09116577  -0.96765271  -0.90294815  1
  Li  Li37  1  0.59116577  0.96765271  -0.40294815  1
  Li  Li38  1  0.09116577  -0.46765271  0.90294815  1
  Li  Li39  1  0.40883423  1.46765271  1.40294815  1
  Li  Li40  1  0.00000000  0.00000000  0.50000000  1
  Li  Li41  1  0.50000000  0.00000000  0.00000000  1
  Li  Li42  1  0.00000000  0.50000000  0.50000000  1
  Li  Li43  1  0.50000000  0.50000000  0.00000000  1
  Li  Li44  1  0.24552665  0.25000000  0.03466940  1
  Li  Li45  1  0.25447335  0.75000000  0.53466940  1
  Li  Li46  1  0.75447335  0.75000000  0.96533060  1
  Li  Li47  1  0.74552665  0.25000000  0.46533060  1
