# generated using pymatgen
data_LiF
_symmetry_space_group_name_H-M   'P 1'
_cell_length_a   8.16237056
_cell_length_b   9.48306107
_cell_length_c   6.94248211
_cell_angle_alpha   90.00000000
_cell_angle_beta   90.00000000
_cell_angle_gamma   90.00000000
_symmetry_Int_Tables_number   1
_chemical_formula_structural   LiF
_chemical_formula_sum   'Li24 F24'
_cell_volume   537.37767994
_cell_formula_units_Z   24
loop_
 _symmetry_equiv_pos_site_id
 _symmetry_equiv_pos_as_xyz
  1  'x, y, z'
loop_
 _atom_site_type_symbol
 _atom_site_label
 _atom_site_symmetry_multiplicity
 _atom_site_fract_x
 _atom_site_fract_y
 _atom_site_fract_z
 _atom_site_occupancy
  F  F0  1  0.91238334  0.32888982  0.95499000  1
  F  F1  1  0.58761666  0.67111018  0.45499000  1
  F  F2  1  0.08761666  0.82888982  0.04501000  1
  F  F3  1  0.41238334  0.17111018  0.54501000  1
  F  F4  1  0.08761666  0.67111018  0.04501000  1
  F  F5  1  0.41238334  0.32888982  0.54501000  1
  F  F6  1  0.91238334  0.17111018  0.95499000  1
  F  F7  1  0.58761666  0.82888982  0.45499000  1
  F  F8  1  0.86051746  0.25000000  0.33357007  1
  F  F9  1  0.63948254  0.75000000  0.83357007  1
  F  F10  1  0.13948254  0.75000000  0.66642993  1
  F  F11  1  0.36051746  0.25000000  0.16642993  1
  F  F12  1  0.53770386  0.63433699  0.75754415  1
  F  F13  1  0.96229614  0.36566301  0.25754415  1
  F  F14  1  0.46229614  0.13433699  0.24245585  1
  F  F15  1  0.03770386  0.86566301  0.74245585  1
  F  F16  1  0.46229614  0.36566301  0.24245585  1
  F  F17  1  0.03770386  0.63433699  0.74245585  1
  F  F18  1  0.53770386  0.86566301  0.75754415  1
  F  F19  1  0.96229614  0.13433699  0.25754415  1
  F  F20  1  0.56053649  0.25000000  0.73754731  1
  F  F21  1  0.93946351  0.75000000  0.23754731  1
  F  F22  1  0.43946351  0.75000000  0.26245269  1
  F  F23  1  0.06053649  0.25000000  0.76245269  1
  Li  Li24  1  0.00000000  0.00000000  0.00000000  1
  Li  Li25  1  0.50000000  -0.00000000  0.50000000  1
  Li  Li26  1  0.00000000  0.50000000  0.00000000  1
  Li  Li27  1  0.50000000  0.50000000  0.50000000  1
  Li  Li28  1  0.16045611  0.87224807  0.89499809  1
  Li  Li29  1  0.33954389  -0.87224807  1.39499809  1
  Li  Li30  1  -0.16045611  1.37224807  -0.89499809  1
  Li  Li31  1  0.66045611  -0.37224807  -0.39499809  1
  Li  Li32  1  -0.16045611  -0.87224807  -0.89499809  1
  Li  Li33  1  0.66045611  0.87224807  -0.39499809  1
  Li  Li34  1  0.16045611  -0.37224807  0.89499809  1
  Li  Li35  1  0.33954389  1.37224807  1.39499809  1
  Li  Li36  1  0.00000000  0.00000000  0.50000000  1
  Li  Li37  1  0.50000000  -0.00000000  -0.00000000  1
  Li  Li38  1  0.00000000  0.50000000  0.50000000  1
  Li  Li39  1  0.50000000  0.50000000  0.00000000  1
  Li  Li40  1  0.65466296  0.59121503  0.04894019  1
  Li  Li41  1  0.84533704  0.40878497  0.54894019  1
  Li  Li42  1  0.34533704  0.09121503  0.95105981  1
  Li  Li43  1  0.15466296  0.90878497  0.45105981  1
  Li  Li44  1  0.34533704  0.40878497  0.95105981  1
  Li  Li45  1  0.15466296  0.59121503  0.45105981  1
  Li  Li46  1  0.65466296  0.90878497  0.04894019  1
  Li  Li47  1  0.84533704  0.09121503  0.54894019  1
