# generated using pymatgen
data_LiF
_symmetry_space_group_name_H-M   'P 1'
_cell_length_a   7.32402570
_cell_length_b   8.44524668
_cell_length_c   10.92457314
_cell_angle_alpha   90.00000000
_cell_angle_beta   90.00000000
_cell_angle_gamma   90.00000000
_symmetry_Int_Tables_number   1
_chemical_formula_structural   LiF
_chemical_formula_sum   'Li24 F24'
_cell_volume   675.71984791
_cell_formula_units_Z   24
loop_
 _symmetry_equiv_pos_site_id
 _symmetry_equiv_pos_as_xyz
  1  'x, y, z'
loop_
 _atom_site_type_symbol
 _atom_site_label
 _atom_site_symmetry_multiplicity
 _atom_site_fract_x
 _atom_site_fract_y
 _atom_site_fract_z
 _atom_site_occupancy
  F  F0  1  0.78002317  0.83127783  0.72780960  1
  F  F1  1  0.71997683  0.16872217  0.22780960  1
  F  F2  1  0.21997683  0.33127783  0.27219040  1
  F  F3  1  0.28002317  0.66872217  0.77219040  1
  F  F4  1  0.21997683  0.16872217  0.27219040  1
  F  F5  1  0.28002317  0.83127783  0.77219040  1
  F  F6  1  0.78002317  0.66872217  0.72780960  1
  F  F7  1  0.71997683  0.33127783  0.22780960  1
  F  F8  1  0.86698770  0.61371086  0.49326148  1
  F  F9  1  0.63301230  0.38628914  0.99326148  1
  F  F10  1  0.13301230  0.11371086  0.50673852  1
  F  F11  1  0.36698770  0.88628914  0.00673852  1
  F  F12  1  0.13301230  0.38628914  0.50673852  1
  F  F13  1  0.36698770  0.61371086  0.00673852  1
  F  F14  1  0.86698770  0.88628914  0.49326148  1
  F  F15  1  0.63301230  0.11371086  0.99326148  1
  F  F16  1  0.77470493  0.18651909  0.07689690  1
  F  F17  1  0.72529507  0.81348091  0.57689690  1
  F  F18  1  0.22529507  0.68651909  0.92310310  1
  F  F19  1  0.27470493  0.31348091  0.42310310  1
  F  F20  1  0.22529507  0.81348091  0.92310310  1
  F  F21  1  0.27470493  0.18651909  0.42310310  1
  F  F22  1  0.77470493  0.31348091  0.07689690  1
  F  F23  1  0.72529507  0.68651909  0.57689690  1
  Li  Li24  1  0.76891278  0.50147843  0.45131985  1
  Li  Li25  1  -0.26891278  -0.50147843  0.95131985  1
  Li  Li26  1  -0.76891278  1.00147843  -0.45131985  1
  Li  Li27  1  1.26891278  -0.00147843  0.04868015  1
  Li  Li28  1  -0.76891278  -0.50147843  -0.45131985  1
  Li  Li29  1  1.26891278  0.50147843  0.04868015  1
  Li  Li30  1  0.76891278  -0.00147843  0.45131985  1
  Li  Li31  1  -0.26891278  1.00147843  0.95131985  1
  Li  Li32  1  0.90844980  0.25000000  0.72146932  1
  Li  Li33  1  0.59155020  0.75000000  0.22146932  1
  Li  Li34  1  0.09155020  0.75000000  0.27853068  1
  Li  Li35  1  0.40844980  0.25000000  0.77853068  1
  Li  Li36  1  0.00000000  0.00000000  0.50000000  1
  Li  Li37  1  0.50000000  0.00000000  0.00000000  1
  Li  Li38  1  0.00000000  0.50000000  0.50000000  1
  Li  Li39  1  0.50000000  0.50000000  0.00000000  1
  Li  Li40  1  0.87397767  0.90818222  0.78679505  1
  Li  Li41  1  0.62602233  0.09181778  0.28679505  1
  Li  Li42  1  0.12602233  0.40818222  0.21320495  1
  Li  Li43  1  0.37397767  0.59181778  0.71320495  1
  Li  Li44  1  0.12602233  0.09181778  0.21320495  1
  Li  Li45  1  0.37397767  0.90818222  0.71320495  1
  Li  Li46  1  0.87397767  0.59181778  0.78679505  1
  Li  Li47  1  0.62602233  0.40818222  0.28679505  1
