# generated using pymatgen
data_LiF
_symmetry_space_group_name_H-M   'P 1'
_cell_length_a   14.48255255
_cell_length_b   6.15537066
_cell_length_c   11.09917309
_cell_angle_alpha   90.00000000
_cell_angle_beta   90.00000000
_cell_angle_gamma   90.00000000
_symmetry_Int_Tables_number   1
_chemical_formula_structural   LiF
_chemical_formula_sum   'Li24 F24'
_cell_volume   989.44110304
_cell_formula_units_Z   24
loop_
 _symmetry_equiv_pos_site_id
 _symmetry_equiv_pos_as_xyz
  1  'x, y, z'
loop_
 _atom_site_type_symbol
 _atom_site_label
 _atom_site_symmetry_multiplicity
 _atom_site_fract_x
 _atom_site_fract_y
 _atom_site_fract_z
 _atom_site_occupancy
  F  F0  1  0.42433321  0.03869707  0.86052202  1
  F  F1  1  0.07566679  0.96130293  0.36052202  1
  F  F2  1  0.57566679  0.53869707  0.13947798  1
  F  F3  1  0.92433321  0.46130293  0.63947798  1
  F  F4  1  0.57566679  0.96130293  0.13947798  1
  F  F5  1  0.92433321  0.03869707  0.63947798  1
  F  F6  1  0.42433321  0.46130293  0.86052202  1
  F  F7  1  0.07566679  0.53869707  0.36052202  1
  F  F8  1  0.91007390  0.64980271  0.92947226  1
  F  F9  1  0.58992610  0.35019729  0.42947226  1
  F  F10  1  0.08992610  0.14980271  0.07052774  1
  F  F11  1  0.41007390  0.85019729  0.57052774  1
  F  F12  1  0.08992610  0.35019729  0.07052774  1
  F  F13  1  0.41007390  0.64980271  0.57052774  1
  F  F14  1  0.91007390  0.85019729  0.92947226  1
  F  F15  1  0.58992610  0.14980271  0.42947226  1
  F  F16  1  0.16905293  0.57518116  0.64927290  1
  F  F17  1  0.33094707  0.42481884  0.14927290  1
  F  F18  1  0.83094707  0.07518116  0.35072710  1
  F  F19  1  0.66905293  0.92481884  0.85072710  1
  F  F20  1  0.83094707  0.42481884  0.35072710  1
  F  F21  1  0.66905293  0.57518116  0.85072710  1
  F  F22  1  0.16905293  0.92481884  0.64927290  1
  F  F23  1  0.33094707  0.07518116  0.14927290  1
  Li  Li24  1  0.68218914  0.40607593  0.59424972  1
  Li  Li25  1  -0.18218914  -0.40607593  1.09424972  1
  Li  Li26  1  -0.68218914  0.90607593  -0.59424972  1
  Li  Li27  1  1.18218914  0.09392407  -0.09424972  1
  Li  Li28  1  -0.68218914  -0.40607593  -0.59424972  1
  Li  Li29  1  1.18218914  0.40607593  -0.09424972  1
  Li  Li30  1  0.68218914  0.09392407  0.59424972  1
  Li  Li31  1  -0.18218914  0.90607593  1.09424972  1
  Li  Li32  1  0.00000000  0.00000000  0.50000000  1
  Li  Li33  1  0.50000000  0.00000000  0.00000000  1
  Li  Li34  1  0.00000000  0.50000000  0.50000000  1
  Li  Li35  1  0.50000000  0.50000000  0.00000000  1
  Li  Li36  1  0.30484189  0.25000000  0.52030932  1
  Li  Li37  1  0.19515811  0.75000000  0.02030932  1
  Li  Li38  1  0.69515811  0.75000000  0.47969068  1
  Li  Li39  1  0.80484189  0.25000000  0.97969068  1
  Li  Li40  1  0.07425984  0.25000000  0.99957349  1
  Li  Li41  1  0.42574016  0.75000000  0.49957349  1
  Li  Li42  1  0.92574016  0.75000000  0.00042651  1
  Li  Li43  1  0.57425984  0.25000000  0.50042651  1
  Li  Li44  1  0.00000000  0.00000000  0.00000000  1
  Li  Li45  1  0.50000000  0.00000000  0.50000000  1
  Li  Li46  1  0.00000000  0.50000000  0.00000000  1
  Li  Li47  1  0.50000000  0.50000000  0.50000000  1
