# generated using pymatgen
data_LiF
_symmetry_space_group_name_H-M   'P 1'
_cell_length_a   7.30596078
_cell_length_b   10.06029198
_cell_length_c   11.71109360
_cell_angle_alpha   90.00000000
_cell_angle_beta   90.00000000
_cell_angle_gamma   90.00000000
_symmetry_Int_Tables_number   1
_chemical_formula_structural   LiF
_chemical_formula_sum   'Li36 F36'
_cell_volume   860.76653485
_cell_formula_units_Z   36
loop_
 _symmetry_equiv_pos_site_id
 _symmetry_equiv_pos_as_xyz
  1  'x, y, z'
loop_
 _atom_site_type_symbol
 _atom_site_label
 _atom_site_symmetry_multiplicity
 _atom_site_fract_x
 _atom_site_fract_y
 _atom_site_fract_z
 _atom_site_occupancy
  F  F0  1  0.48111996  0.25000000  0.48560282  1
  F  F1  1  0.01888004  0.75000000  0.98560282  1
  F  F2  1  0.51888004  0.75000000  0.51439718  1
  F  F3  1  0.98111996  0.25000000  0.01439718  1
  F  F4  1  0.50476532  0.15668967  0.29750442  1
  F  F5  1  0.99523468  0.84331033  0.79750442  1
  F  F6  1  0.49523468  0.65668967  0.70249558  1
  F  F7  1  0.00476532  0.34331033  0.20249558  1
  F  F8  1  0.49523468  0.84331033  0.70249558  1
  F  F9  1  0.00476532  0.15668967  0.20249558  1
  F  F10  1  0.50476532  0.34331033  0.29750442  1
  F  F11  1  0.99523468  0.65668967  0.79750442  1
  F  F12  1  0.67082782  0.53788795  0.35452609  1
  F  F13  1  0.82917218  0.46211205  0.85452609  1
  F  F14  1  0.32917218  0.03788795  0.64547391  1
  F  F15  1  0.17082782  0.96211205  0.14547391  1
  F  F16  1  0.32917218  0.46211205  0.64547391  1
  F  F17  1  0.17082782  0.53788795  0.14547391  1
  F  F18  1  0.67082782  0.96211205  0.35452609  1
  F  F19  1  0.82917218  0.03788795  0.85452609  1
  F  F20  1  0.07683413  0.18704712  0.92689439  1
  F  F21  1  0.42316587  0.81295288  0.42689439  1
  F  F22  1  0.92316587  0.68704712  0.07310561  1
  F  F23  1  0.57683413  0.31295288  0.57310561  1
  F  F24  1  0.92316587  0.81295288  0.07310561  1
  F  F25  1  0.57683413  0.18704712  0.57310561  1
  F  F26  1  0.07683413  0.31295288  0.92689439  1
  F  F27  1  0.42316587  0.68704712  0.42689439  1
  F  F28  1  0.51855678  0.25000000  0.78373817  1
  F  F29  1  0.98144322  0.75000000  0.28373817  1
  F  F30  1  0.48144322  0.75000000  0.21626183  1
  F  F31  1  0.01855678  0.25000000  0.71626183  1
  F  F32  1  0.54323343  0.25000000  0.72544285  1
  F  F33  1  0.95676657  0.75000000  0.22544285  1
  F  F34  1  0.45676657  0.75000000  0.27455715  1
  F  F35  1  0.04323343  0.25000000  0.77455715  1
  Li  Li36  1  0.34686749  0.62548362  0.48761293  1
  Li  Li37  1  0.15313251  -0.62548362  0.98761293  1
  Li  Li38  1  -0.34686749  1.12548362  -0.48761293  1
  Li  Li39  1  0.84686749  -0.12548362  0.01238707  1
  Li  Li40  1  -0.34686749  -0.62548362  -0.48761293  1
  Li  Li41  1  0.84686749  0.62548362  0.01238707  1
  Li  Li42  1  0.34686749  -0.12548362  0.48761293  1
  Li  Li43  1  0.15313251  1.12548362  0.98761293  1
  Li  Li44  1  0.00000000  0.00000000  0.00000000  1
  Li  Li45  1  0.50000000  0.00000000  0.50000000  1
  Li  Li46  1  0.00000000  0.50000000  0.00000000  1
  Li  Li47  1  0.50000000  0.50000000  0.50000000  1
  Li  Li48  1  0.00000000  0.00000000  0.50000000  1
  Li  Li49  1  0.50000000  0.00000000  0.00000000  1
  Li  Li50  1  0.00000000  0.50000000  0.50000000  1
  Li  Li51  1  0.50000000  0.50000000  0.00000000  1
  Li  Li52  1  0.50697725  0.85102903  0.54451752  1
  Li  Li53  1  0.99302275  0.14897097  0.04451752  1
  Li  Li54  1  0.49302275  0.35102903  0.45548248  1
  Li  Li55  1  0.00697725  0.64897097  0.95548248  1
  Li  Li56  1  0.49302275  0.14897097  0.45548248  1
  Li  Li57  1  0.00697725  0.85102903  0.95548248  1
  Li  Li58  1  0.50697725  0.64897097  0.54451752  1
  Li  Li59  1  0.99302275  0.35102903  0.04451752  1
  Li  Li60  1  0.61119385  0.83849371  0.81814802  1
  Li  Li61  1  0.88880615  0.16150629  0.31814802  1
  Li  Li62  1  0.38880615  0.33849371  0.18185198  1
  Li  Li63  1  0.11119385  0.66150629  0.68185198  1
  Li  Li64  1  0.38880615  0.16150629  0.18185198  1
  Li  Li65  1  0.11119385  0.83849371  0.68185198  1
  Li  Li66  1  0.61119385  0.66150629  0.81814802  1
  Li  Li67  1  0.88880615  0.33849371  0.31814802  1
  Li  Li68  1  0.21782210  0.25000000  0.92077296  1
  Li  Li69  1  0.28217790  0.75000000  0.42077296  1
  Li  Li70  1  0.78217790  0.75000000  0.07922704  1
  Li  Li71  1  0.71782210  0.25000000  0.57922704  1
