# generated using pymatgen
data_LiF
_symmetry_space_group_name_H-M   'P 1'
_cell_length_a   4.54542330
_cell_length_b   5.29723208
_cell_length_c   8.46605947
_cell_angle_alpha   90.00000000
_cell_angle_beta   90.00000000
_cell_angle_gamma   90.00000000
_symmetry_Int_Tables_number   1
_chemical_formula_structural   LiF
_chemical_formula_sum   'Li14 F14'
_cell_volume   203.84715275
_cell_formula_units_Z   14
loop_
 _symmetry_equiv_pos_site_id
 _symmetry_equiv_pos_as_xyz
  1  'x, y, z'
loop_
 _atom_site_type_symbol
 _atom_site_label
 _atom_site_symmetry_multiplicity
 _atom_site_fract_x
 _atom_site_fract_y
 _atom_site_fract_z
 _atom_site_occupancy
  F  F0  1  0.46534474  0.43712379  0.07922589  1
  F  F1  1  -0.46534474  -0.43712379  0.07922589  1
  F  F2  1  0.03465526  0.93712379  0.42077411  1
  F  F3  1  0.96534474  0.06287621  0.42077411  1
  F  F4  1  -0.46534474  -0.43712379  -0.07922589  1
  F  F5  1  0.46534474  0.43712379  -0.07922589  1
  F  F6  1  0.96534474  0.06287621  0.57922589  1
  F  F7  1  0.03465526  0.93712379  0.57922589  1
  F  F8  1  0.00000000  0.50000000  0.62437537  1
  F  F9  1  0.50000000  0.00000000  0.87562463  1
  F  F10  1  0.00000000  0.50000000  0.37562463  1
  F  F11  1  0.50000000  0.00000000  0.12437537  1
  F  F12  1  0.00000000  0.50000000  0.50000000  1
  F  F13  1  0.50000000  0.00000000  0.00000000  1
  Li  Li14  1  0.00685914  0.83799856  0.30441903  1
  Li  Li15  1  0.99314086  0.16200144  0.30441903  1
  Li  Li16  1  0.49314086  0.33799856  0.19558097  1
  Li  Li17  1  0.50685914  0.66200144  0.19558097  1
  Li  Li18  1  0.99314086  0.16200144  0.69558097  1
  Li  Li19  1  0.00685914  0.83799856  0.69558097  1
  Li  Li20  1  0.50685914  0.66200144  0.80441903  1
  Li  Li21  1  0.49314086  0.33799856  0.80441903  1
  Li  Li22  1  0.00000000  0.00000000  0.00000000  1
  Li  Li23  1  0.50000000  0.50000000  0.50000000  1
  Li  Li24  1  0.00000000  0.50000000  0.11886636  1
  Li  Li25  1  0.50000000  0.00000000  0.38113364  1
  Li  Li26  1  0.00000000  0.50000000  0.88113364  1
  Li  Li27  1  0.50000000  0.00000000  0.61886636  1
