# generated using pymatgen
data_Li2Cu3Sb2P
_symmetry_space_group_name_H-M   'P 1'
_cell_length_a   4.38928293
_cell_length_b   4.54459517
_cell_length_c   6.52283658
_cell_angle_alpha   95.47937899
_cell_angle_beta   100.61695427
_cell_angle_gamma   109.94466074
_symmetry_Int_Tables_number   1
_chemical_formula_structural   Li2Cu3Sb2P
_chemical_formula_sum   'Li2 Cu3 Sb2 P1'
_cell_volume   118.43817894
_cell_formula_units_Z   1
loop_
 _symmetry_equiv_pos_site_id
 _symmetry_equiv_pos_as_xyz
  1  'x, y, z'
loop_
 _atom_site_type_symbol
 _atom_site_label
 _atom_site_symmetry_multiplicity
 _atom_site_fract_x
 _atom_site_fract_y
 _atom_site_fract_z
 _atom_site_occupancy
  Cu  Cu0  1  0.00000000  0.00000000  0.00000000  1
  Cu  Cu1  1  0.50000000  0.50000000  0.50000000  1
  Cu  Cu2  1  0.50000000  0.50000000  0.00000000  1
  P  P3  1  0.50000000  0.00000000  0.50000000  1
  Li  Li4  1  0.00000000  0.50000000  0.50000000  1
  Li  Li5  1  0.89093696  0.92198193  0.71776879  1
  Sb  Sb6  1  0.87264331  0.69137731  0.77986984  1
  Sb  Sb7  1  0.84809203  0.79440089  0.50891722  1
