# generated using pymatgen
data_LiF
_symmetry_space_group_name_H-M   'P 1'
_cell_length_a   11.34217072
_cell_length_b   11.34217072
_cell_length_c   11.47981993
_cell_angle_alpha   90.00000000
_cell_angle_beta   90.00000000
_cell_angle_gamma   120.00000000
_symmetry_Int_Tables_number   1
_chemical_formula_structural   LiF
_chemical_formula_sum   'Li33 F33'
_cell_volume   1278.96325437
_cell_formula_units_Z   33
loop_
 _symmetry_equiv_pos_site_id
 _symmetry_equiv_pos_as_xyz
  1  'x, y, z'
loop_
 _atom_site_type_symbol
 _atom_site_label
 _atom_site_symmetry_multiplicity
 _atom_site_fract_x
 _atom_site_fract_y
 _atom_site_fract_z
 _atom_site_occupancy
  F  F0  1  0.53457772  0.44361906  0.84382015  1
  F  F1  1  0.55638094  0.09095866  0.84382015  1
  F  F2  1  0.90904134  0.46542228  0.84382015  1
  F  F3  1  0.55638094  0.46542228  0.15617985  1
  F  F4  1  0.90904134  0.44361906  0.15617985  1
  F  F5  1  0.53457772  0.09095866  0.15617985  1
  F  F6  1  0.24522230  0.51732336  0.61602976  1
  F  F7  1  0.48267664  0.72789895  0.61602976  1
  F  F8  1  0.27210105  0.75477770  0.61602976  1
  F  F9  1  0.48267664  0.75477770  0.38397024  1
  F  F10  1  0.27210105  0.51732336  0.38397024  1
  F  F11  1  0.24522230  0.72789895  0.38397024  1
  F  F12  1  0.00000000  0.00000000  0.35245738  1
  F  F13  1  0.00000000  0.00000000  0.64754262  1
  F  F14  1  0.57220328  0.54778899  0.38374609  1
  F  F15  1  0.45221101  0.02441429  0.38374609  1
  F  F16  1  0.97558571  0.42779672  0.38374609  1
  F  F17  1  0.45221101  0.42779672  0.61625391  1
  F  F18  1  0.97558571  0.54778899  0.61625391  1
  F  F19  1  0.57220328  0.02441429  0.61625391  1
  F  F20  1  0.39817396  0.40619725  0.00161645  1
  F  F21  1  0.59380275  0.99197671  0.00161645  1
  F  F22  1  0.00802329  0.60182604  0.00161645  1
  F  F23  1  0.59380275  0.60182604  0.99838355  1
  F  F24  1  0.00802329  0.40619725  0.99838355  1
  F  F25  1  0.39817396  0.99197671  0.99838355  1
  F  F26  1  0.66666667  0.33333333  0.00000000  1
  F  F27  1  0.88847975  0.08268741  0.72113094  1
  F  F28  1  0.91731259  0.80579233  0.72113094  1
  F  F29  1  0.19420767  0.11152025  0.72113094  1
  F  F30  1  0.91731259  0.11152025  0.27886906  1
  F  F31  1  0.19420767  0.08268741  0.27886906  1
  F  F32  1  0.88847975  0.80579233  0.27886906  1
  Li  Li33  1  0.25988130  0.74011870  0.50000000  1
  Li  Li34  1  0.25988130  0.51976259  0.50000000  1
  Li  Li35  1  0.48023741  0.74011870  0.50000000  1
  Li  Li36  1  0.00000000  0.00000000  0.00000000  1
  Li  Li37  1  0.46458085  0.39297240  0.10687531  1
  Li  Li38  1  -0.39297240  0.07160846  0.10687531  1
  Li  Li39  1  -0.07160846  -0.46458085  0.10687531  1
  Li  Li40  1  -0.39297240  -0.46458085  -0.10687531  1
  Li  Li41  1  -0.07160846  0.39297240  -0.10687531  1
  Li  Li42  1  0.46458085  0.07160846  -0.10687531  1
  Li  Li43  1  0.10301849  0.85553076  0.56392532  1
  Li  Li44  1  0.14446924  0.24748773  0.56392532  1
  Li  Li45  1  0.75251227  0.89698151  0.56392532  1
  Li  Li46  1  0.14446924  0.89698151  0.43607468  1
  Li  Li47  1  0.75251227  0.85553076  0.43607468  1
  Li  Li48  1  0.10301849  0.24748773  0.43607468  1
  Li  Li49  1  0.65020992  0.98742289  0.91441664  1
  Li  Li50  1  0.01257711  0.66278703  0.91441664  1
  Li  Li51  1  0.33721297  0.34979008  0.91441664  1
  Li  Li52  1  0.01257711  0.34979008  0.08558336  1
  Li  Li53  1  0.33721297  0.98742289  0.08558336  1
  Li  Li54  1  0.65020992  0.66278703  0.08558336  1
  Li  Li55  1  0.93101888  0.06898112  0.00000000  1
  Li  Li56  1  0.93101888  0.86203775  -0.00000000  1
  Li  Li57  1  0.13796225  0.06898112  0.00000000  1
  Li  Li58  1  0.33333333  0.66666667  0.50000000  1
  Li  Li59  1  0.37844629  0.81878855  0.17916136  1
  Li  Li60  1  0.18121145  0.55965775  0.17916136  1
  Li  Li61  1  0.44034225  0.62155371  0.17916136  1
  Li  Li62  1  0.18121145  0.62155371  0.82083864  1
  Li  Li63  1  0.44034225  0.81878855  0.82083864  1
  Li  Li64  1  0.37844629  0.55965775  0.82083864  1
  Li  Li65  1  0.66666667  0.33333333  0.50000000  1
