# generated using pymatgen
data_LiF
_symmetry_space_group_name_H-M   'P 1'
_cell_length_a   7.39718940
_cell_length_b   8.99665279
_cell_length_c   10.13920102
_cell_angle_alpha   90.00000000
_cell_angle_beta   90.00000000
_cell_angle_gamma   90.00000000
_symmetry_Int_Tables_number   1
_chemical_formula_structural   LiF
_chemical_formula_sum   'Li20 F20'
_cell_volume   674.76326637
_cell_formula_units_Z   20
loop_
 _symmetry_equiv_pos_site_id
 _symmetry_equiv_pos_as_xyz
  1  'x, y, z'
loop_
 _atom_site_type_symbol
 _atom_site_label
 _atom_site_symmetry_multiplicity
 _atom_site_fract_x
 _atom_site_fract_y
 _atom_site_fract_z
 _atom_site_occupancy
  F  F0  1  0.15239354  0.95360160  0.64561478  1
  F  F1  1  0.84760646  0.04639840  0.64561478  1
  F  F2  1  0.34760646  0.45360160  0.35438522  1
  F  F3  1  0.65239354  0.54639840  0.35438522  1
  F  F4  1  0.84760646  0.04639840  0.35438522  1
  F  F5  1  0.15239354  0.95360160  0.35438522  1
  F  F6  1  0.65239354  0.54639840  0.64561478  1
  F  F7  1  0.34760646  0.45360160  0.64561478  1
  F  F8  1  0.00000000  0.50000000  0.00000000  1
  F  F9  1  0.50000000  0.00000000  0.00000000  1
  F  F10  1  0.79279982  0.96703683  0.54209154  1
  F  F11  1  0.20720018  0.03296317  0.54209154  1
  F  F12  1  0.70720018  0.46703683  0.45790846  1
  F  F13  1  0.29279982  0.53296317  0.45790846  1
  F  F14  1  0.20720018  0.03296317  0.45790846  1
  F  F15  1  0.79279982  0.96703683  0.45790846  1
  F  F16  1  0.29279982  0.53296317  0.54209154  1
  F  F17  1  0.70720018  0.46703683  0.54209154  1
  F  F18  1  0.00000000  0.50000000  0.50000000  1
  F  F19  1  0.50000000  0.00000000  0.50000000  1
  Li  Li20  1  0.23976310  0.91085174  0.50000000  1
  Li  Li21  1  0.76023690  0.08914826  0.50000000  1
  Li  Li22  1  0.26023690  0.41085174  0.50000000  1
  Li  Li23  1  0.73976310  0.58914826  0.50000000  1
  Li  Li24  1  0.00122189  0.41404466  0.59186937  1
  Li  Li25  1  -0.00122189  -0.41404466  0.59186937  1
  Li  Li26  1  0.49877811  0.91404466  -0.59186937  1
  Li  Li27  1  0.50122189  0.08595534  -0.59186937  1
  Li  Li28  1  -0.00122189  -0.41404466  -0.59186937  1
  Li  Li29  1  0.00122189  0.41404466  -0.59186937  1
  Li  Li30  1  0.50122189  0.08595534  0.59186937  1
  Li  Li31  1  0.49877811  0.91404466  0.59186937  1
  Li  Li32  1  0.15913082  0.60970988  0.00000000  1
  Li  Li33  1  0.84086918  0.39029012  -0.00000000  1
  Li  Li34  1  0.34086918  0.10970988  0.00000000  1
  Li  Li35  1  0.65913082  0.89029012  0.00000000  1
  Li  Li36  1  0.00000000  0.50000000  0.22712937  1
  Li  Li37  1  0.50000000  0.00000000  0.77287063  1
  Li  Li38  1  0.00000000  0.50000000  0.77287063  1
  Li  Li39  1  0.50000000  0.00000000  0.22712937  1
