# generated using pymatgen
data_LiF
_symmetry_space_group_name_H-M   'P 1'
_cell_length_a   9.13612813
_cell_length_b   9.13612813
_cell_length_c   9.13612813
_cell_angle_alpha   90.00000000
_cell_angle_beta   90.00000000
_cell_angle_gamma   90.00000000
_symmetry_Int_Tables_number   1
_chemical_formula_structural   LiF
_chemical_formula_sum   'Li40 F40'
_cell_volume   762.58199101
_cell_formula_units_Z   40
loop_
 _symmetry_equiv_pos_site_id
 _symmetry_equiv_pos_as_xyz
  1  'x, y, z'
loop_
 _atom_site_type_symbol
 _atom_site_label
 _atom_site_symmetry_multiplicity
 _atom_site_fract_x
 _atom_site_fract_y
 _atom_site_fract_z
 _atom_site_occupancy
  F  F0  1  0.18910631  0.18910631  0.18910631  1
  F  F1  1  0.56089369  0.06089369  0.68910631  1
  F  F2  1  0.06089369  0.68910631  0.56089369  1
  F  F3  1  0.68910631  0.56089369  0.06089369  1
  F  F4  1  0.93910631  0.43910631  0.31089369  1
  F  F5  1  0.81089369  0.81089369  0.81089369  1
  F  F6  1  0.43910631  0.31089369  0.93910631  1
  F  F7  1  0.31089369  0.93910631  0.43910631  1
  F  F8  1  0.18910631  0.68910631  0.68910631  1
  F  F9  1  0.56089369  0.56089369  0.18910631  1
  F  F10  1  0.06089369  0.18910631  0.06089369  1
  F  F11  1  0.68910631  0.06089369  0.56089369  1
  F  F12  1  0.93910631  0.93910631  0.81089369  1
  F  F13  1  0.81089369  0.31089369  0.31089369  1
  F  F14  1  0.43910631  0.81089369  0.43910631  1
  F  F15  1  0.31089369  0.43910631  0.93910631  1
  F  F16  1  0.68910631  0.18910631  0.68910631  1
  F  F17  1  0.06089369  0.06089369  0.18910631  1
  F  F18  1  0.56089369  0.68910631  0.06089369  1
  F  F19  1  0.18910631  0.56089369  0.56089369  1
  F  F20  1  0.43910631  0.43910631  0.81089369  1
  F  F21  1  0.31089369  0.81089369  0.31089369  1
  F  F22  1  0.93910631  0.31089369  0.43910631  1
  F  F23  1  0.81089369  0.93910631  0.93910631  1
  F  F24  1  0.68910631  0.68910631  0.18910631  1
  F  F25  1  0.06089369  0.56089369  0.68910631  1
  F  F26  1  0.56089369  0.18910631  0.56089369  1
  F  F27  1  0.18910631  0.06089369  0.06089369  1
  F  F28  1  0.43910631  0.93910631  0.31089369  1
  F  F29  1  0.31089369  0.31089369  0.81089369  1
  F  F30  1  0.93910631  0.81089369  0.93910631  1
  F  F31  1  0.81089369  0.43910631  0.43910631  1
  F  F32  1  0.37500000  0.37500000  0.37500000  1
  F  F33  1  0.12500000  0.62500000  0.12500000  1
  F  F34  1  0.37500000  0.87500000  0.87500000  1
  F  F35  1  0.12500000  0.12500000  0.62500000  1
  F  F36  1  0.87500000  0.37500000  0.87500000  1
  F  F37  1  0.62500000  0.62500000  0.62500000  1
  F  F38  1  0.87500000  0.87500000  0.37500000  1
  F  F39  1  0.62500000  0.12500000  0.12500000  1
  Li  Li40  1  0.30813024  0.30813024  0.30813024  1
  Li  Li41  1  0.44186976  -0.05813024  0.80813024  1
  Li  Li42  1  -0.05813024  0.80813024  0.44186976  1
  Li  Li43  1  0.80813024  0.44186976  -0.05813024  1
  Li  Li44  1  1.05813024  0.55813024  0.19186976  1
  Li  Li45  1  -0.30813024  -0.30813024  -0.30813024  1
  Li  Li46  1  0.55813024  0.19186976  1.05813024  1
  Li  Li47  1  0.19186976  1.05813024  0.55813024  1
  Li  Li48  1  0.30813024  0.80813024  0.80813024  1
  Li  Li49  1  0.44186976  0.44186976  1.30813024  1
  Li  Li50  1  -0.05813024  1.30813024  0.94186976  1
  Li  Li51  1  0.80813024  0.94186976  0.44186976  1
  Li  Li52  1  1.05813024  1.05813024  0.69186976  1
  Li  Li53  1  -0.30813024  0.19186976  0.19186976  1
  Li  Li54  1  0.55813024  0.69186976  1.55813024  1
  Li  Li55  1  0.19186976  1.55813024  1.05813024  1
  Li  Li56  1  0.80813024  0.30813024  0.80813024  1
  Li  Li57  1  0.94186976  -0.05813024  1.30813024  1
  Li  Li58  1  0.44186976  0.80813024  0.94186976  1
  Li  Li59  1  1.30813024  0.44186976  0.44186976  1
  Li  Li60  1  1.55813024  0.55813024  0.69186976  1
  Li  Li61  1  0.19186976  -0.30813024  0.19186976  1
  Li  Li62  1  1.05813024  0.19186976  1.55813024  1
  Li  Li63  1  0.69186976  1.05813024  1.05813024  1
  Li  Li64  1  0.80813024  0.80813024  0.30813024  1
  Li  Li65  1  0.94186976  0.44186976  0.80813024  1
  Li  Li66  1  0.44186976  1.30813024  0.44186976  1
  Li  Li67  1  1.30813024  0.94186976  -0.05813024  1
  Li  Li68  1  1.55813024  1.05813024  0.19186976  1
  Li  Li69  1  0.19186976  0.19186976  -0.30813024  1
  Li  Li70  1  1.05813024  0.69186976  1.05813024  1
  Li  Li71  1  0.69186976  1.55813024  0.55813024  1
  Li  Li72  1  0.12500000  0.12500000  0.12500000  1
  Li  Li73  1  0.87500000  0.37500000  0.37500000  1
  Li  Li74  1  0.12500000  0.62500000  0.62500000  1
  Li  Li75  1  0.87500000  0.87500000  0.87500000  1
  Li  Li76  1  0.62500000  0.12500000  0.62500000  1
  Li  Li77  1  0.37500000  0.37500000  0.87500000  1
  Li  Li78  1  0.62500000  0.62500000  0.12500000  1
  Li  Li79  1  0.37500000  0.87500000  0.37500000  1
