# generated using pymatgen
data_Li4TeF2
_symmetry_space_group_name_H-M   'P 1'
_cell_length_a   9.22651189
_cell_length_b   9.22651189
_cell_length_c   25.06059150
_cell_angle_alpha   90.00000000
_cell_angle_beta   90.00000000
_cell_angle_gamma   90.00000000
_symmetry_Int_Tables_number   1
_chemical_formula_structural   Li4TeF2
_chemical_formula_sum   'Li96 Te24 F48'
_cell_volume   2133.37110671
_cell_formula_units_Z   24
loop_
 _symmetry_equiv_pos_site_id
 _symmetry_equiv_pos_as_xyz
  1  'x, y, z'
loop_
 _atom_site_type_symbol
 _atom_site_label
 _atom_site_symmetry_multiplicity
 _atom_site_fract_x
 _atom_site_fract_y
 _atom_site_fract_z
 _atom_site_occupancy
  F  F0  1  0.46109436  0.00000000  0.25000000  1
  F  F1  1  0.03890564  0.00000000  0.75000000  1
  F  F2  1  0.25000000  0.21109436  0.50000000  1
  F  F3  1  0.25000000  0.78890564  0.00000000  1
  F  F4  1  0.53890564  0.00000000  0.75000000  1
  F  F5  1  0.96109436  0.00000000  0.25000000  1
  F  F6  1  0.75000000  0.78890564  0.50000000  1
  F  F7  1  0.75000000  0.21109436  -0.00000000  1
  F  F8  1  0.96109436  0.50000000  0.75000000  1
  F  F9  1  0.53890564  0.50000000  0.25000000  1
  F  F10  1  0.75000000  0.71109436  0.00000000  1
  F  F11  1  0.75000000  0.28890564  0.50000000  1
  F  F12  1  0.03890564  0.50000000  0.25000000  1
  F  F13  1  0.46109436  0.50000000  0.75000000  1
  F  F14  1  0.25000000  0.28890564  0.00000000  1
  F  F15  1  0.25000000  0.71109436  0.50000000  1
  F  F16  1  0.00000000  0.25000000  0.60009933  1
  F  F17  1  0.00000000  0.75000000  0.85009933  1
  F  F18  1  0.50000000  0.25000000  0.39990067  1
  F  F19  1  0.50000000  0.75000000  0.14990067  1
  F  F20  1  0.00000000  0.75000000  0.39990067  1
  F  F21  1  0.00000000  0.25000000  0.14990067  1
  F  F22  1  0.50000000  0.75000000  0.60009933  1
  F  F23  1  0.50000000  0.25000000  0.85009933  1
  F  F24  1  0.50000000  0.75000000  0.10009933  1
  F  F25  1  0.50000000  0.25000000  0.35009933  1
  F  F26  1  0.00000000  0.75000000  0.89990067  1
  F  F27  1  0.00000000  0.25000000  0.64990067  1
  F  F28  1  0.50000000  0.25000000  0.89990067  1
  F  F29  1  0.50000000  0.75000000  0.64990067  1
  F  F30  1  0.00000000  0.25000000  0.10009933  1
  F  F31  1  0.00000000  0.75000000  0.35009933  1
  F  F32  1  0.38865766  0.00000000  0.25000000  1
  F  F33  1  0.11134234  -0.00000000  0.75000000  1
  F  F34  1  0.25000000  0.13865766  0.50000000  1
  F  F35  1  0.25000000  0.86134234  0.00000000  1
  F  F36  1  0.61134234  0.00000000  0.75000000  1
  F  F37  1  0.88865766  -0.00000000  0.25000000  1
  F  F38  1  0.75000000  0.86134234  0.50000000  1
  F  F39  1  0.75000000  0.13865766  0.00000000  1
  F  F40  1  0.88865766  0.50000000  0.75000000  1
  F  F41  1  0.61134234  0.50000000  0.25000000  1
  F  F42  1  0.75000000  0.63865766  0.00000000  1
  F  F43  1  0.75000000  0.36134234  0.50000000  1
  F  F44  1  0.11134234  0.50000000  0.25000000  1
  F  F45  1  0.38865766  0.50000000  0.75000000  1
  F  F46  1  0.25000000  0.36134234  0.00000000  1
  F  F47  1  0.25000000  0.63865766  0.50000000  1
  Li  Li48  1  0.72293322  0.47300095  0.80469906  1
  Li  Li49  1  -0.22293322  -0.47300095  1.30469906  1
  Li  Li50  1  -0.22300095  1.47293322  1.05469906  1
  Li  Li51  1  0.72300095  -0.47293322  1.55469906  1
  Li  Li52  1  -0.22293322  0.47300095  -0.80469906  1
  Li  Li53  1  0.72293322  -0.47300095  -0.30469906  1
  Li  Li54  1  0.72300095  1.47293322  -0.05469906  1
  Li  Li55  1  -0.22300095  -0.47293322  -0.55469906  1
  Li  Li56  1  -0.72293322  -0.47300095  -0.80469906  1
  Li  Li57  1  1.22293322  0.47300095  -0.30469906  1
  Li  Li58  1  1.22300095  -0.47293322  -0.05469906  1
  Li  Li59  1  0.27699905  1.47293322  -0.55469906  1
  Li  Li60  1  1.22293322  -0.47300095  0.80469906  1
  Li  Li61  1  -0.72293322  0.47300095  1.30469906  1
  Li  Li62  1  0.27699905  -0.47293322  1.05469906  1
  Li  Li63  1  1.22300095  1.47293322  1.55469906  1
  Li  Li64  1  1.22293322  0.97300095  1.30469906  1
  Li  Li65  1  0.27706678  0.02699905  1.80469906  1
  Li  Li66  1  0.27699905  1.97293322  1.55469906  1
  Li  Li67  1  1.22300095  0.02706678  2.05469906  1
  Li  Li68  1  0.27706678  0.97300095  -0.30469906  1
  Li  Li69  1  1.22293322  0.02699905  0.19530094  1
  Li  Li70  1  1.22300095  1.97293322  0.44530094  1
  Li  Li71  1  0.27699905  0.02706678  -0.05469906  1
  Li  Li72  1  -0.22293322  0.02699905  -0.30469906  1
  Li  Li73  1  1.72293322  0.97300095  0.19530094  1
  Li  Li74  1  1.72300095  0.02706678  0.44530094  1
  Li  Li75  1  0.77699905  1.97293322  -0.05469906  1
  Li  Li76  1  1.72293322  0.02699905  1.30469906  1
  Li  Li77  1  -0.22293322  0.97300095  1.80469906  1
  Li  Li78  1  0.77699905  0.02706678  1.55469906  1
  Li  Li79  1  1.72300095  1.97293322  2.05469906  1
  Li  Li80  1  0.00000000  0.00000000  0.00000000  1
  Li  Li81  1  0.50000000  0.00000000  0.50000000  1
  Li  Li82  1  0.25000000  0.75000000  0.25000000  1
  Li  Li83  1  0.25000000  0.25000000  0.75000000  1
  Li  Li84  1  0.50000000  0.00000000  0.00000000  1
  Li  Li85  1  0.00000000  0.00000000  0.50000000  1
  Li  Li86  1  0.25000000  0.75000000  0.75000000  1
  Li  Li87  1  0.25000000  0.25000000  0.25000000  1
  Li  Li88  1  0.50000000  0.50000000  0.50000000  1
  Li  Li89  1  0.00000000  0.50000000  0.00000000  1
  Li  Li90  1  0.75000000  0.25000000  0.75000000  1
  Li  Li91  1  0.75000000  0.75000000  0.25000000  1
  Li  Li92  1  0.00000000  0.50000000  0.50000000  1
  Li  Li93  1  0.50000000  0.50000000  0.00000000  1
  Li  Li94  1  0.75000000  0.25000000  0.25000000  1
  Li  Li95  1  0.75000000  0.75000000  0.75000000  1
  Li  Li96  1  0.00000000  0.25000000  0.97539823  1
  Li  Li97  1  0.00000000  0.75000000  0.22539823  1
  Li  Li98  1  0.50000000  0.25000000  0.02460177  1
  Li  Li99  1  0.50000000  0.75000000  0.77460177  1
  Li  Li100  1  0.00000000  0.75000000  0.02460177  1
  Li  Li101  1  0.00000000  0.25000000  0.77460177  1
  Li  Li102  1  0.50000000  0.75000000  0.97539823  1
  Li  Li103  1  0.50000000  0.25000000  0.22539823  1
  Li  Li104  1  0.50000000  0.75000000  0.47539823  1
  Li  Li105  1  0.50000000  0.25000000  0.72539823  1
  Li  Li106  1  0.00000000  0.75000000  0.52460177  1
  Li  Li107  1  0.00000000  0.25000000  0.27460177  1
  Li  Li108  1  0.50000000  0.25000000  0.52460177  1
  Li  Li109  1  0.50000000  0.75000000  0.27460177  1
  Li  Li110  1  0.00000000  0.25000000  0.47539823  1
  Li  Li111  1  0.00000000  0.75000000  0.72539823  1
  Li  Li112  1  0.97569488  0.04434670  0.05807888  1
  Li  Li113  1  0.52430512  0.95565330  0.55807888  1
  Li  Li114  1  0.20565330  0.72569488  0.30807888  1
  Li  Li115  1  0.29434670  0.27430512  0.80807888  1
  Li  Li116  1  0.52430512  0.04434670  0.94192112  1
  Li  Li117  1  0.97569488  0.95565330  0.44192112  1
  Li  Li118  1  0.29434670  0.72569488  0.69192112  1
  Li  Li119  1  0.20565330  0.27430512  0.19192112  1
  Li  Li120  1  0.02430512  0.95565330  0.94192112  1
  Li  Li121  1  0.47569488  0.04434670  0.44192112  1
  Li  Li122  1  0.79434670  0.27430512  0.69192112  1
  Li  Li123  1  0.70565330  0.72569488  0.19192112  1
  Li  Li124  1  0.47569488  0.95565330  0.05807888  1
  Li  Li125  1  0.02430512  0.04434670  0.55807888  1
  Li  Li126  1  0.70565330  0.27430512  0.30807888  1
  Li  Li127  1  0.79434670  0.72569488  0.80807888  1
  Li  Li128  1  0.47569488  0.54434670  0.55807888  1
  Li  Li129  1  0.02430512  0.45565330  0.05807888  1
  Li  Li130  1  0.70565330  0.22569488  0.80807888  1
  Li  Li131  1  0.79434670  0.77430512  0.30807888  1
  Li  Li132  1  0.02430512  0.54434670  0.44192112  1
  Li  Li133  1  0.47569488  0.45565330  0.94192112  1
  Li  Li134  1  0.79434670  0.22569488  0.19192112  1
  Li  Li135  1  0.70565330  0.77430512  0.69192112  1
  Li  Li136  1  0.52430512  0.45565330  0.44192112  1
  Li  Li137  1  0.97569488  0.54434670  0.94192112  1
  Li  Li138  1  0.29434670  0.77430512  0.19192112  1
  Li  Li139  1  0.20565330  0.22569488  0.69192112  1
  Li  Li140  1  0.97569488  0.45565330  0.55807888  1
  Li  Li141  1  0.52430512  0.54434670  0.05807888  1
  Li  Li142  1  0.20565330  0.77430512  0.80807888  1
  Li  Li143  1  0.29434670  0.22569488  0.30807888  1
  Te  Te144  1  0.29449554  0.54449554  0.12500000  1
  Te  Te145  1  0.20550446  0.45550446  0.62500000  1
  Te  Te146  1  0.70550446  0.04449554  0.37500000  1
  Te  Te147  1  0.79449554  0.95550446  0.87500000  1
  Te  Te148  1  0.70550446  0.45550446  0.87500000  1
  Te  Te149  1  0.79449554  0.54449554  0.37500000  1
  Te  Te150  1  0.29449554  0.95550446  0.62500000  1
  Te  Te151  1  0.20550446  0.04449554  0.12500000  1
  Te  Te152  1  0.79449554  0.04449554  0.62500000  1
  Te  Te153  1  0.70550446  0.95550446  0.12500000  1
  Te  Te154  1  0.20550446  0.54449554  0.87500000  1
  Te  Te155  1  0.29449554  0.45550446  0.37500000  1
  Te  Te156  1  0.20550446  0.95550446  0.37500000  1
  Te  Te157  1  0.29449554  0.04449554  0.87500000  1
  Te  Te158  1  0.79449554  0.45550446  0.12500000  1
  Te  Te159  1  0.70550446  0.54449554  0.62500000  1
  Te  Te160  1  0.00000000  0.25000000  0.37500000  1
  Te  Te161  1  0.00000000  0.75000000  0.62500000  1
  Te  Te162  1  0.50000000  0.25000000  0.62500000  1
  Te  Te163  1  0.50000000  0.75000000  0.37500000  1
  Te  Te164  1  0.50000000  0.75000000  0.87500000  1
  Te  Te165  1  0.50000000  0.25000000  0.12500000  1
  Te  Te166  1  0.00000000  0.75000000  0.12500000  1
  Te  Te167  1  0.00000000  0.25000000  0.87500000  1
