# generated using pymatgen
data_Li2Si4Te3F12
_symmetry_space_group_name_H-M   'P 1'
_cell_length_a   7.66463870
_cell_length_b   10.66922637
_cell_length_c   22.10228652
_cell_angle_alpha   90.00000000
_cell_angle_beta   90.00000000
_cell_angle_gamma   90.00000000
_symmetry_Int_Tables_number   1
_chemical_formula_structural   Li2Si4Te3F12
_chemical_formula_sum   'Li8 Si16 Te12 F48'
_cell_volume   1807.43139642
_cell_formula_units_Z   4
loop_
 _symmetry_equiv_pos_site_id
 _symmetry_equiv_pos_as_xyz
  1  'x, y, z'
loop_
 _atom_site_type_symbol
 _atom_site_label
 _atom_site_symmetry_multiplicity
 _atom_site_fract_x
 _atom_site_fract_y
 _atom_site_fract_z
 _atom_site_occupancy
  F  F0  1  0.32883154  0.32617412  0.13654380  1
  F  F1  1  0.67116846  0.67382588  0.13654380  1
  F  F2  1  0.17116846  0.82617412  0.86345620  1
  F  F3  1  0.82883154  0.17382588  0.86345620  1
  F  F4  1  0.67116846  0.67382588  0.86345620  1
  F  F5  1  0.32883154  0.32617412  0.86345620  1
  F  F6  1  0.82883154  0.17382588  0.13654380  1
  F  F7  1  0.17116846  0.82617412  0.13654380  1
  F  F8  1  0.14055136  0.69436328  0.18139119  1
  F  F9  1  0.85944864  0.30563672  0.18139119  1
  F  F10  1  0.35944864  0.19436328  0.81860881  1
  F  F11  1  0.64055136  0.80563672  0.81860881  1
  F  F12  1  0.85944864  0.30563672  0.81860881  1
  F  F13  1  0.14055136  0.69436328  0.81860881  1
  F  F14  1  0.64055136  0.80563672  0.18139119  1
  F  F15  1  0.35944864  0.19436328  0.18139119  1
  F  F16  1  0.63546890  0.34309116  0.74134297  1
  F  F17  1  0.36453110  0.65690884  0.74134297  1
  F  F18  1  0.86453110  0.84309116  0.25865703  1
  F  F19  1  0.13546890  0.15690884  0.25865703  1
  F  F20  1  0.36453110  0.65690884  0.25865703  1
  F  F21  1  0.63546890  0.34309116  0.25865703  1
  F  F22  1  0.13546890  0.15690884  0.74134297  1
  F  F23  1  0.86453110  0.84309116  0.74134297  1
  F  F24  1  0.09627457  0.97354493  0.11762900  1
  F  F25  1  0.90372543  0.02645507  0.11762900  1
  F  F26  1  0.40372543  0.47354493  0.88237100  1
  F  F27  1  0.59627457  0.52645507  0.88237100  1
  F  F28  1  0.90372543  0.02645507  0.88237100  1
  F  F29  1  0.09627457  0.97354493  0.88237100  1
  F  F30  1  0.59627457  0.52645507  0.11762900  1
  F  F31  1  0.40372543  0.47354493  0.11762900  1
  F  F32  1  0.76967131  0.06235006  0.50000000  1
  F  F33  1  0.23032869  0.93764994  0.50000000  1
  F  F34  1  0.73032869  0.56235006  0.50000000  1
  F  F35  1  0.26967131  0.43764994  0.50000000  1
  F  F36  1  0.86845625  0.86833867  0.47970084  1
  F  F37  1  0.13154375  0.13166133  0.47970084  1
  F  F38  1  0.63154375  0.36833867  0.52029916  1
  F  F39  1  0.36845625  0.63166133  0.52029916  1
  F  F40  1  0.13154375  0.13166133  0.52029916  1
  F  F41  1  0.86845625  0.86833867  0.52029916  1
  F  F42  1  0.36845625  0.63166133  0.47970084  1
  F  F43  1  0.63154375  0.36833867  0.47970084  1
  F  F44  1  0.00000000  0.50000000  0.29489274  1
  F  F45  1  0.50000000  0.00000000  0.70510726  1
  F  F46  1  0.00000000  0.50000000  0.70510726  1
  F  F47  1  0.50000000  0.00000000  0.29489274  1
  Li  Li48  1  0.42989583  0.44205661  -0.00000000  1
  Li  Li49  1  0.57010417  0.55794339  0.00000000  1
  Li  Li50  1  0.07010417  0.94205661  0.00000000  1
  Li  Li51  1  0.92989583  0.05794339  -0.00000000  1
  Li  Li52  1  0.36447318  0.58733265  0.00000000  1
  Li  Li53  1  0.63552682  0.41266735  -0.00000000  1
  Li  Li54  1  0.13552682  0.08733265  0.00000000  1
  Li  Li55  1  0.86447318  0.91266735  0.00000000  1
  Si  Si56  1  0.18973456  0.34767053  0.21452380  1
  Si  Si57  1  -0.18973456  -0.34767053  0.21452380  1
  Si  Si58  1  0.31026544  0.84767053  -0.21452380  1
  Si  Si59  1  0.68973456  0.15232947  -0.21452380  1
  Si  Si60  1  -0.18973456  -0.34767053  -0.21452380  1
  Si  Si61  1  0.18973456  0.34767053  -0.21452380  1
  Si  Si62  1  0.68973456  0.15232947  0.21452380  1
  Si  Si63  1  0.31026544  0.84767053  0.21452380  1
  Si  Si64  1  0.00000000  0.50000000  0.50000000  1
  Si  Si65  1  0.50000000  0.00000000  0.50000000  1
  Si  Si66  1  0.00000000  0.50000000  0.16530902  1
  Si  Si67  1  0.50000000  0.00000000  0.83469098  1
  Si  Si68  1  0.00000000  0.50000000  0.83469098  1
  Si  Si69  1  0.50000000  0.00000000  0.16530902  1
  Si  Si70  1  0.00000000  0.50000000  0.00000000  1
  Si  Si71  1  0.50000000  0.00000000  -0.00000000  1
  Te  Te72  1  0.52694866  0.72505578  0.93293370  1
  Te  Te73  1  0.47305134  0.27494422  0.93293370  1
  Te  Te74  1  0.97305134  0.22505578  0.06706630  1
  Te  Te75  1  0.02694866  0.77494422  0.06706630  1
  Te  Te76  1  0.47305134  0.27494422  0.06706630  1
  Te  Te77  1  0.52694866  0.72505578  0.06706630  1
  Te  Te78  1  0.02694866  0.77494422  0.93293370  1
  Te  Te79  1  0.97305134  0.22505578  0.93293370  1
  Te  Te80  1  0.00000000  0.50000000  0.42303997  1
  Te  Te81  1  0.50000000  0.00000000  0.57696003  1
  Te  Te82  1  0.00000000  0.50000000  0.57696003  1
  Te  Te83  1  0.50000000  0.00000000  0.42303997  1
