# generated using pymatgen
data_LiF
_symmetry_space_group_name_H-M   'P 1'
_cell_length_a   7.38019848
_cell_length_b   7.38019848
_cell_length_c   4.86370673
_cell_angle_alpha   90.00000000
_cell_angle_beta   90.00000000
_cell_angle_gamma   90.00000000
_symmetry_Int_Tables_number   1
_chemical_formula_structural   LiF
_chemical_formula_sum   'Li9 F9'
_cell_volume   264.91311712
_cell_formula_units_Z   9
loop_
 _symmetry_equiv_pos_site_id
 _symmetry_equiv_pos_as_xyz
  1  'x, y, z'
loop_
 _atom_site_type_symbol
 _atom_site_label
 _atom_site_symmetry_multiplicity
 _atom_site_fract_x
 _atom_site_fract_y
 _atom_site_fract_z
 _atom_site_occupancy
  F  F0  1  0.00000000  0.50000000  0.57347305  1
  F  F1  1  0.50000000  0.00000000  0.57347305  1
  F  F2  1  0.00000000  0.50000000  0.42652695  1
  F  F3  1  0.50000000  0.00000000  0.42652695  1
  F  F4  1  0.93002301  0.50000000  0.00000000  1
  F  F5  1  0.06997699  0.50000000  -0.00000000  1
  F  F6  1  0.50000000  0.93002301  0.00000000  1
  F  F7  1  0.50000000  0.06997699  -0.00000000  1
  F  F8  1  0.00000000  0.00000000  0.00000000  1
  Li  Li9  1  0.69308775  0.50000000  0.50000000  1
  Li  Li10  1  -0.69308775  0.50000000  0.50000000  1
  Li  Li11  1  0.50000000  0.69308775  0.50000000  1
  Li  Li12  1  0.50000000  -0.69308775  0.50000000  1
  Li  Li13  1  0.71473312  0.50000000  -0.00000000  1
  Li  Li14  1  0.28526688  0.50000000  0.00000000  1
  Li  Li15  1  0.50000000  0.71473312  -0.00000000  1
  Li  Li16  1  0.50000000  0.28526688  0.00000000  1
  Li  Li17  1  0.50000000  0.50000000  0.00000000  1
