# generated using pymatgen
data_LiF
_symmetry_space_group_name_H-M   'P 1'
_cell_length_a   7.25963198
_cell_length_b   7.25963198
_cell_length_c   25.48917489
_cell_angle_alpha   90.00000000
_cell_angle_beta   90.00000000
_cell_angle_gamma   120.00000000
_symmetry_Int_Tables_number   1
_chemical_formula_structural   LiF
_chemical_formula_sum   'Li48 F48'
_cell_volume   1163.36399770
_cell_formula_units_Z   48
loop_
 _symmetry_equiv_pos_site_id
 _symmetry_equiv_pos_as_xyz
  1  'x, y, z'
loop_
 _atom_site_type_symbol
 _atom_site_label
 _atom_site_symmetry_multiplicity
 _atom_site_fract_x
 _atom_site_fract_y
 _atom_site_fract_z
 _atom_site_occupancy
  F  F0  1  0.29213664  0.18528079  0.08368012  1
  F  F1  1  -0.18528079  0.10685585  0.08368012  1
  F  F2  1  -0.10685585  -0.29213664  0.08368012  1
  F  F3  1  0.18528079  0.29213664  0.41631988  1
  F  F4  1  0.10685585  -0.18528079  0.41631988  1
  F  F5  1  -0.29213664  -0.10685585  0.41631988  1
  F  F6  1  -0.29213664  -0.18528079  -0.08368012  1
  F  F7  1  0.18528079  -0.10685585  -0.08368012  1
  F  F8  1  0.10685585  0.29213664  -0.08368012  1
  F  F9  1  -0.18528079  -0.29213664  0.58368012  1
  F  F10  1  -0.10685585  0.18528079  0.58368012  1
  F  F11  1  0.29213664  0.10685585  0.58368012  1
  F  F12  1  0.95880331  0.51861413  0.41701345  1
  F  F13  1  0.48138587  0.44018918  0.41701345  1
  F  F14  1  0.55981082  0.04119669  0.41701345  1
  F  F15  1  0.85194746  0.62546998  0.74965322  1
  F  F16  1  0.77352252  0.14805254  0.74965322  1
  F  F17  1  0.37453002  0.22647748  0.74965322  1
  F  F18  1  0.37453002  0.14805254  0.24965322  1
  F  F19  1  0.85194746  0.22647748  0.24965322  1
  F  F20  1  0.77352252  0.62546998  0.24965322  1
  F  F21  1  0.48138587  0.04119669  0.91701345  1
  F  F22  1  0.55981082  0.51861413  0.91701345  1
  F  F23  1  0.95880331  0.44018918  0.91701345  1
  F  F24  1  0.62546998  0.85194746  0.75034678  1
  F  F25  1  0.14805254  0.77352252  0.75034678  1
  F  F26  1  0.22647748  0.37453002  0.75034678  1
  F  F27  1  0.51861413  0.95880331  1.08298655  1
  F  F28  1  0.44018918  0.48138587  1.08298655  1
  F  F29  1  0.04119669  0.55981082  1.08298655  1
  F  F30  1  0.04119669  0.48138587  0.58298655  1
  F  F31  1  0.51861413  0.55981082  0.58298655  1
  F  F32  1  0.44018918  0.95880331  0.58298655  1
  F  F33  1  0.14805254  0.37453002  1.25034678  1
  F  F34  1  0.22647748  0.85194746  1.25034678  1
  F  F35  1  0.62546998  0.77352252  1.25034678  1
  F  F36  1  0.00000000  0.00000000  0.00000000  1
  F  F37  1  0.00000000  0.00000000  0.50000000  1
  F  F38  1  0.66666667  0.33333333  0.33333333  1
  F  F39  1  0.66666667  0.33333333  0.83333333  1
  F  F40  1  0.33333333  0.66666667  0.66666667  1
  F  F41  1  0.33333333  0.66666667  0.16666667  1
  F  F42  1  0.00000000  0.00000000  0.25000000  1
  F  F43  1  0.00000000  0.00000000  0.75000000  1
  F  F44  1  0.66666667  0.33333333  0.58333333  1
  F  F45  1  0.66666667  0.33333333  0.08333333  1
  F  F46  1  0.33333333  0.66666667  0.91666667  1
  F  F47  1  0.33333333  0.66666667  0.41666667  1
  Li  Li48  1  0.54833062  0.00000000  0.25000000  1
  Li  Li49  1  0.00000000  0.54833062  0.25000000  1
  Li  Li50  1  0.45166938  0.45166938  0.25000000  1
  Li  Li51  1  0.45166938  0.00000000  0.75000000  1
  Li  Li52  1  0.00000000  0.45166938  0.75000000  1
  Li  Li53  1  0.54833062  0.54833062  0.75000000  1
  Li  Li54  1  0.21499729  0.33333333  0.58333333  1
  Li  Li55  1  0.66666667  0.88166396  0.58333333  1
  Li  Li56  1  0.11833604  0.78500271  0.58333333  1
  Li  Li57  1  0.11833604  0.33333333  0.08333333  1
  Li  Li58  1  0.66666667  0.78500271  0.08333333  1
  Li  Li59  1  0.21499729  0.88166396  0.08333333  1
  Li  Li60  1  0.88166396  0.66666667  0.91666667  1
  Li  Li61  1  0.33333333  0.21499729  0.91666667  1
  Li  Li62  1  0.78500271  0.11833604  0.91666667  1
  Li  Li63  1  0.78500271  0.66666667  0.41666667  1
  Li  Li64  1  0.33333333  0.11833604  0.41666667  1
  Li  Li65  1  0.88166396  0.21499729  0.41666667  1
  Li  Li66  1  0.50000000  0.00000000  0.00000000  1
  Li  Li67  1  0.00000000  0.50000000  0.00000000  1
  Li  Li68  1  0.50000000  0.50000000  0.00000000  1
  Li  Li69  1  0.00000000  0.50000000  0.50000000  1
  Li  Li70  1  0.50000000  0.00000000  0.50000000  1
  Li  Li71  1  0.50000000  0.50000000  0.50000000  1
  Li  Li72  1  0.16666667  0.33333333  0.33333333  1
  Li  Li73  1  0.66666667  0.83333333  0.33333333  1
  Li  Li74  1  0.16666667  0.83333333  0.33333333  1
  Li  Li75  1  0.66666667  0.83333333  0.83333333  1
  Li  Li76  1  0.16666667  0.33333333  0.83333333  1
  Li  Li77  1  0.16666667  0.83333333  0.83333333  1
  Li  Li78  1  0.83333333  0.66666667  0.66666667  1
  Li  Li79  1  0.33333333  0.16666667  0.66666667  1
  Li  Li80  1  0.83333333  0.16666667  0.66666667  1
  Li  Li81  1  0.33333333  0.16666667  0.16666667  1
  Li  Li82  1  0.83333333  0.66666667  0.16666667  1
  Li  Li83  1  0.83333333  0.16666667  0.16666667  1
  Li  Li84  1  0.00000000  0.00000000  0.05849351  1
  Li  Li85  1  0.00000000  0.00000000  0.44150649  1
  Li  Li86  1  0.00000000  0.00000000  0.94150649  1
  Li  Li87  1  0.00000000  0.00000000  0.55849351  1
  Li  Li88  1  0.66666667  0.33333333  0.39182684  1
  Li  Li89  1  0.66666667  0.33333333  0.77483983  1
  Li  Li90  1  0.66666667  0.33333333  0.27483983  1
  Li  Li91  1  0.66666667  0.33333333  0.89182684  1
  Li  Li92  1  0.33333333  0.66666667  0.72516017  1
  Li  Li93  1  0.33333333  0.66666667  0.10817316  1
  Li  Li94  1  0.33333333  0.66666667  0.60817316  1
  Li  Li95  1  0.33333333  0.66666667  0.22516017  1
