# generated using pymatgen
data_Li2Sb2P3
_symmetry_space_group_name_H-M   'P 1'
_cell_length_a   4.23181499
_cell_length_b   4.38665339
_cell_length_c   6.82576677
_cell_angle_alpha   96.08164182
_cell_angle_beta   103.24455153
_cell_angle_gamma   114.42753808
_symmetry_Int_Tables_number   1
_chemical_formula_structural   Li2Sb2P3
_chemical_formula_sum   'Li2 Sb2 P3'
_cell_volume   109.38194204
_cell_formula_units_Z   1
loop_
 _symmetry_equiv_pos_site_id
 _symmetry_equiv_pos_as_xyz
  1  'x, y, z'
loop_
 _atom_site_type_symbol
 _atom_site_label
 _atom_site_symmetry_multiplicity
 _atom_site_fract_x
 _atom_site_fract_y
 _atom_site_fract_z
 _atom_site_occupancy
  P  P0  1  0.12500000  0.00000000  0.25000000  1
  P  P1  1  0.00000000  0.00000000  0.00000000  1
  P  P2  1  0.37500000  0.00000000  0.25000000  1
  Li  Li3  1  0.25000000  0.25000000  0.25000000  1
  Li  Li4  1  0.00000000  0.25000000  0.12500000  1
  Sb  Sb5  1  0.75158313  0.18487745  0.77674138  1
  Sb  Sb6  1  0.57468247  0.99836824  0.52423560  1
