# generated using pymatgen
data_Li2F
_symmetry_space_group_name_H-M   'P 1'
_cell_length_a   3.09944315
_cell_length_b   3.13308354
_cell_length_c   5.57163583
_cell_angle_alpha   103.99378291
_cell_angle_beta   109.04592199
_cell_angle_gamma   115.02235230
_symmetry_Int_Tables_number   1
_chemical_formula_structural   Li2F
_chemical_formula_sum   'Li2 F1'
_cell_volume   41.53697538
_cell_formula_units_Z   1
loop_
 _symmetry_equiv_pos_site_id
 _symmetry_equiv_pos_as_xyz
  1  'x, y, z'
loop_
 _atom_site_type_symbol
 _atom_site_label
 _atom_site_symmetry_multiplicity
 _atom_site_fract_x
 _atom_site_fract_y
 _atom_site_fract_z
 _atom_site_occupancy
  F  F0  1  0.12500000  0.12500000  0.12500000  1
  Li  Li1  1  0.50000000  0.50000000  0.50000000  1
  Li  Li2  1  0.25000000  0.25000000  0.25000000  1
