# generated using pymatgen
data_Li2Y2P4Se
_symmetry_space_group_name_H-M   'P 1'
_cell_length_a   4.18848870
_cell_length_b   4.32349771
_cell_length_c   6.93136057
_cell_angle_alpha   96.24025056
_cell_angle_beta   103.58996839
_cell_angle_gamma   115.06460635
_symmetry_Int_Tables_number   1
_chemical_formula_structural   Li2Y2P4Se
_chemical_formula_sum   'Li2 Y2 P4 Se1'
_cell_volume   107.38055391
_cell_formula_units_Z   1
loop_
 _symmetry_equiv_pos_site_id
 _symmetry_equiv_pos_as_xyz
  1  'x, y, z'
loop_
 _atom_site_type_symbol
 _atom_site_label
 _atom_site_symmetry_multiplicity
 _atom_site_fract_x
 _atom_site_fract_y
 _atom_site_fract_z
 _atom_site_occupancy
  Se  Se0  1  0.00000000  0.00000000  0.00000000  1
  P  P1  1  0.50000000  0.50000000  0.50000000  1
  P  P2  1  0.50000000  0.50000000  0.00000000  1
  P  P3  1  0.50000000  0.00000000  0.50000000  1
  P  P4  1  0.00000000  0.50000000  0.50000000  1
  Li  Li5  1  0.45066904  0.62420447  0.49892428  1
  Li  Li6  1  0.51240172  0.97403973  0.36634106  1
  Y  Y7  1  0.22268695  0.56215401  0.72247124  1
  Y  Y8  1  0.70219238  0.94754140  0.74796640  1
