# generated using pymatgen
data_LiF
_symmetry_space_group_name_H-M   'P 1'
_cell_length_a   10.21248490
_cell_length_b   10.22709902
_cell_length_c   6.91063364
_cell_angle_alpha   90.00000000
_cell_angle_beta   90.00000000
_cell_angle_gamma   90.00000000
_symmetry_Int_Tables_number   1
_chemical_formula_structural   LiF
_chemical_formula_sum   'Li36 F36'
_cell_volume   721.77487137
_cell_formula_units_Z   36
loop_
 _symmetry_equiv_pos_site_id
 _symmetry_equiv_pos_as_xyz
  1  'x, y, z'
loop_
 _atom_site_type_symbol
 _atom_site_label
 _atom_site_symmetry_multiplicity
 _atom_site_fract_x
 _atom_site_fract_y
 _atom_site_fract_z
 _atom_site_occupancy
  F  F0  1  0.59750508  0.22274427  0.59285450  1
  F  F1  1  -0.59750508  -0.22274427  0.59285450  1
  F  F2  1  -0.09750508  0.72274427  -0.59285450  1
  F  F3  1  1.09750508  0.27725573  -0.59285450  1
  F  F4  1  -0.59750508  -0.22274427  -0.59285450  1
  F  F5  1  0.59750508  0.22274427  -0.59285450  1
  F  F6  1  1.09750508  0.27725573  0.59285450  1
  F  F7  1  -0.09750508  0.72274427  0.59285450  1
  F  F8  1  0.92127997  0.22550645  0.29885108  1
  F  F9  1  0.07872003  0.77449355  0.29885108  1
  F  F10  1  0.57872003  0.72550645  0.70114892  1
  F  F11  1  0.42127997  0.27449355  0.70114892  1
  F  F12  1  0.07872003  0.77449355  0.70114892  1
  F  F13  1  0.92127997  0.22550645  0.70114892  1
  F  F14  1  0.42127997  0.27449355  0.29885108  1
  F  F15  1  0.57872003  0.72550645  0.29885108  1
  F  F16  1  0.39227724  0.11344076  0.50000000  1
  F  F17  1  0.60772276  0.88655924  0.50000000  1
  F  F18  1  0.10772276  0.61344076  0.50000000  1
  F  F19  1  0.89227724  0.38655924  0.50000000  1
  F  F20  1  0.87982746  0.65539314  0.50000000  1
  F  F21  1  0.12017254  0.34460686  0.50000000  1
  F  F22  1  0.62017254  0.15539314  0.50000000  1
  F  F23  1  0.37982746  0.84460686  0.50000000  1
  F  F24  1  0.55320294  0.61717072  0.00000000  1
  F  F25  1  0.44679706  0.38282928  -0.00000000  1
  F  F26  1  0.94679706  0.11717072  0.00000000  1
  F  F27  1  0.05320294  0.88282928  0.00000000  1
  F  F28  1  0.55843748  0.98057897  0.17657364  1
  F  F29  1  0.44156252  0.01942103  0.17657364  1
  F  F30  1  0.94156252  0.48057897  0.82342636  1
  F  F31  1  0.05843748  0.51942103  0.82342636  1
  F  F32  1  0.44156252  0.01942103  0.82342636  1
  F  F33  1  0.55843748  0.98057897  0.82342636  1
  F  F34  1  0.05843748  0.51942103  0.17657364  1
  F  F35  1  0.94156252  0.48057897  0.17657364  1
  Li  Li36  1  0.00000000  0.50000000  0.00000000  1
  Li  Li37  1  0.50000000  0.00000000  0.00000000  1
  Li  Li38  1  0.00000000  0.00000000  0.00000000  1
  Li  Li39  1  0.50000000  0.50000000  0.00000000  1
  Li  Li40  1  0.00000000  0.00000000  0.50000000  1
  Li  Li41  1  0.50000000  0.50000000  0.50000000  1
  Li  Li42  1  0.20583763  0.32688391  0.60815868  1
  Li  Li43  1  0.79416237  0.67311609  0.60815868  1
  Li  Li44  1  0.29416237  0.82688391  0.39184132  1
  Li  Li45  1  0.70583763  0.17311609  0.39184132  1
  Li  Li46  1  0.79416237  0.67311609  0.39184132  1
  Li  Li47  1  0.20583763  0.32688391  0.39184132  1
  Li  Li48  1  0.70583763  0.17311609  0.60815868  1
  Li  Li49  1  0.29416237  0.82688391  0.60815868  1
  Li  Li50  1  0.00294218  0.84438820  0.50000000  1
  Li  Li51  1  0.99705782  0.15561180  0.50000000  1
  Li  Li52  1  0.49705782  0.34438820  0.50000000  1
  Li  Li53  1  0.50294218  0.65561180  0.50000000  1
  Li  Li54  1  0.37939891  0.49290083  0.35112214  1
  Li  Li55  1  0.62060109  0.50709917  0.35112214  1
  Li  Li56  1  0.12060109  0.99290083  0.64887786  1
  Li  Li57  1  0.87939891  0.00709917  0.64887786  1
  Li  Li58  1  0.62060109  0.50709917  0.64887786  1
  Li  Li59  1  0.37939891  0.49290083  0.64887786  1
  Li  Li60  1  0.87939891  0.00709917  0.35112214  1
  Li  Li61  1  0.12060109  0.99290083  0.35112214  1
  Li  Li62  1  0.03448463  0.35588888  0.79621961  1
  Li  Li63  1  0.96551537  0.64411112  0.79621961  1
  Li  Li64  1  0.46551537  0.85588888  0.20378039  1
  Li  Li65  1  0.53448463  0.14411112  0.20378039  1
  Li  Li66  1  0.96551537  0.64411112  0.20378039  1
  Li  Li67  1  0.03448463  0.35588888  0.20378039  1
  Li  Li68  1  0.53448463  0.14411112  0.79621961  1
  Li  Li69  1  0.46551537  0.85588888  0.79621961  1
  Li  Li70  1  0.00000000  0.50000000  0.50000000  1
  Li  Li71  1  0.50000000  0.00000000  0.50000000  1
