# generated using pymatgen
data_Li2Si4Te3F12
_symmetry_space_group_name_H-M   'P 1'
_cell_length_a   9.06633528
_cell_length_b   9.06633528
_cell_length_c   13.87151183
_cell_angle_alpha   90.00000000
_cell_angle_beta   90.00000000
_cell_angle_gamma   90.00000000
_symmetry_Int_Tables_number   1
_chemical_formula_structural   Li2Si4Te3F12
_chemical_formula_sum   'Li8 Si16 Te12 F48'
_cell_volume   1140.21656824
_cell_formula_units_Z   4
loop_
 _symmetry_equiv_pos_site_id
 _symmetry_equiv_pos_as_xyz
  1  'x, y, z'
loop_
 _atom_site_type_symbol
 _atom_site_label
 _atom_site_symmetry_multiplicity
 _atom_site_fract_x
 _atom_site_fract_y
 _atom_site_fract_z
 _atom_site_occupancy
  F  F0  1  0.30509532  0.71630045  0.57566472  1
  F  F1  1  0.19490468  -0.71630045  1.07566472  1
  F  F2  1  -0.46630045  1.05509532  0.82566472  1
  F  F3  1  0.96630045  -0.05509532  1.32566472  1
  F  F4  1  0.19490468  0.71630045  -0.07566472  1
  F  F5  1  0.30509532  -0.71630045  -0.57566472  1
  F  F6  1  0.96630045  1.05509532  -0.32566472  1
  F  F7  1  -0.46630045  -0.05509532  0.17433528  1
  F  F8  1  -0.30509532  -0.71630045  -0.57566472  1
  F  F9  1  0.80509532  0.71630045  -0.07566472  1
  F  F10  1  1.46630045  -0.05509532  0.17433528  1
  F  F11  1  0.03369955  1.05509532  -0.32566472  1
  F  F12  1  0.80509532  -0.71630045  1.07566472  1
  F  F13  1  -0.30509532  0.71630045  0.57566472  1
  F  F14  1  0.03369955  -0.05509532  1.32566472  1
  F  F15  1  1.46630045  1.05509532  0.82566472  1
  F  F16  1  0.80509532  1.21630045  1.07566472  1
  F  F17  1  0.69490468  -0.21630045  1.57566472  1
  F  F18  1  0.03369955  1.55509532  1.32566472  1
  F  F19  1  1.46630045  0.44490468  1.82566472  1
  F  F20  1  0.69490468  1.21630045  0.42433528  1
  F  F21  1  0.80509532  -0.21630045  -0.07566472  1
  F  F22  1  1.46630045  1.55509532  0.17433528  1
  F  F23  1  0.03369955  0.44490468  0.67433528  1
  F  F24  1  0.19490468  -0.21630045  -0.07566472  1
  F  F25  1  1.30509532  1.21630045  0.42433528  1
  F  F26  1  1.96630045  0.44490468  0.67433528  1
  F  F27  1  0.53369955  1.55509532  0.17433528  1
  F  F28  1  1.30509532  -0.21630045  1.57566472  1
  F  F29  1  0.19490468  1.21630045  1.07566472  1
  F  F30  1  0.53369955  0.44490468  1.82566472  1
  F  F31  1  1.96630045  1.55509532  1.32566472  1
  F  F32  1  0.00000000  0.31857968  0.72534705  1
  F  F33  1  0.50000000  0.68142032  0.22534705  1
  F  F34  1  0.93142032  0.75000000  0.97534705  1
  F  F35  1  0.56857968  0.25000000  0.47534705  1
  F  F36  1  0.50000000  0.31857968  0.77465295  1
  F  F37  1  0.00000000  0.68142032  0.27465295  1
  F  F38  1  0.56857968  0.75000000  0.52465295  1
  F  F39  1  0.93142032  0.25000000  0.02465295  1
  F  F40  1  0.50000000  0.81857968  0.22534705  1
  F  F41  1  0.00000000  0.18142032  0.72534705  1
  F  F42  1  0.43142032  0.25000000  0.47534705  1
  F  F43  1  0.06857968  0.75000000  0.97534705  1
  F  F44  1  0.00000000  0.81857968  0.27465295  1
  F  F45  1  0.50000000  0.18142032  0.77465295  1
  F  F46  1  0.06857968  0.25000000  0.02465295  1
  F  F47  1  0.43142032  0.75000000  0.52465295  1
  Li  Li48  1  0.00000000  0.25000000  0.11262085  1
  Li  Li49  1  0.00000000  0.75000000  0.36262085  1
  Li  Li50  1  0.50000000  0.25000000  0.38737915  1
  Li  Li51  1  0.50000000  0.75000000  0.13737915  1
  Li  Li52  1  0.50000000  0.75000000  0.61262085  1
  Li  Li53  1  0.50000000  0.25000000  0.86262085  1
  Li  Li54  1  0.00000000  0.75000000  0.88737915  1
  Li  Li55  1  0.00000000  0.25000000  0.63737915  1
  Si  Si56  1  0.31933086  0.56933086  0.87500000  1
  Si  Si57  1  0.18066914  0.43066914  0.37500000  1
  Si  Si58  1  0.68066914  0.06933086  0.12500000  1
  Si  Si59  1  0.81933086  0.93066914  0.62500000  1
  Si  Si60  1  0.68066914  0.43066914  0.12500000  1
  Si  Si61  1  0.81933086  0.56933086  0.62500000  1
  Si  Si62  1  0.31933086  0.93066914  0.87500000  1
  Si  Si63  1  0.18066914  0.06933086  0.37500000  1
  Si  Si64  1  0.81933086  0.06933086  0.37500000  1
  Si  Si65  1  0.68066914  0.93066914  0.87500000  1
  Si  Si66  1  0.18066914  0.56933086  0.62500000  1
  Si  Si67  1  0.31933086  0.43066914  0.12500000  1
  Si  Si68  1  0.18066914  0.93066914  0.62500000  1
  Si  Si69  1  0.31933086  0.06933086  0.12500000  1
  Si  Si70  1  0.81933086  0.43066914  0.37500000  1
  Si  Si71  1  0.68066914  0.56933086  0.87500000  1
  Te  Te72  1  0.00000000  0.25000000  0.48081730  1
  Te  Te73  1  0.00000000  0.75000000  0.73081730  1
  Te  Te74  1  0.50000000  0.25000000  0.01918270  1
  Te  Te75  1  0.50000000  0.75000000  0.76918270  1
  Te  Te76  1  0.50000000  0.75000000  0.98081730  1
  Te  Te77  1  0.50000000  0.25000000  0.23081730  1
  Te  Te78  1  0.00000000  0.75000000  0.51918270  1
  Te  Te79  1  0.00000000  0.25000000  0.26918270  1
  Te  Te80  1  0.00000000  0.75000000  0.12500000  1
  Te  Te81  1  0.50000000  0.75000000  0.37500000  1
  Te  Te82  1  0.50000000  0.25000000  0.62500000  1
  Te  Te83  1  0.00000000  0.25000000  0.87500000  1
