# generated using pymatgen
data_LiF
_symmetry_space_group_name_H-M   'P 1'
_cell_length_a   10.07374978
_cell_length_b   7.30447440
_cell_length_c   7.70494128
_cell_angle_alpha   90.00000000
_cell_angle_beta   90.00000000
_cell_angle_gamma   90.00000000
_symmetry_Int_Tables_number   1
_chemical_formula_structural   LiF
_chemical_formula_sum   'Li24 F24'
_cell_volume   566.95614148
_cell_formula_units_Z   24
loop_
 _symmetry_equiv_pos_site_id
 _symmetry_equiv_pos_as_xyz
  1  'x, y, z'
loop_
 _atom_site_type_symbol
 _atom_site_label
 _atom_site_symmetry_multiplicity
 _atom_site_fract_x
 _atom_site_fract_y
 _atom_site_fract_z
 _atom_site_occupancy
  F  F0  1  0.00000000  0.00000000  0.00000000  1
  F  F1  1  0.50000000  0.00000000  0.50000000  1
  F  F2  1  0.00000000  0.50000000  0.00000000  1
  F  F3  1  0.50000000  0.50000000  0.50000000  1
  F  F4  1  0.51505886  0.94205040  0.24398803  1
  F  F5  1  0.98494114  0.05794960  0.74398803  1
  F  F6  1  0.48494114  0.44205040  0.75601197  1
  F  F7  1  0.01505886  0.55794960  0.25601197  1
  F  F8  1  0.48494114  0.05794960  0.75601197  1
  F  F9  1  0.01505886  0.94205040  0.25601197  1
  F  F10  1  0.51505886  0.55794960  0.24398803  1
  F  F11  1  0.98494114  0.44205040  0.74398803  1
  F  F12  1  0.37859598  0.15898912  0.51519159  1
  F  F13  1  0.12140402  0.84101088  0.01519159  1
  F  F14  1  0.62140402  0.65898912  0.48480841  1
  F  F15  1  0.87859598  0.34101088  0.98480841  1
  F  F16  1  0.62140402  0.84101088  0.48480841  1
  F  F17  1  0.87859598  0.15898912  0.98480841  1
  F  F18  1  0.37859598  0.34101088  0.51519159  1
  F  F19  1  0.12140402  0.65898912  0.01519159  1
  F  F20  1  0.00000000  0.00000000  0.50000000  1
  F  F21  1  0.50000000  0.00000000  0.00000000  1
  F  F22  1  0.00000000  0.50000000  0.50000000  1
  F  F23  1  0.50000000  0.50000000  0.00000000  1
  Li  Li24  1  0.33607491  0.25000000  0.60075180  1
  Li  Li25  1  0.16392509  0.75000000  0.10075180  1
  Li  Li26  1  0.66392509  0.75000000  0.39924820  1
  Li  Li27  1  0.83607491  0.25000000  0.89924820  1
  Li  Li28  1  0.94454489  0.46610913  0.87433804  1
  Li  Li29  1  -0.44454489  -0.46610913  1.37433804  1
  Li  Li30  1  -0.94454489  0.96610913  -0.87433804  1
  Li  Li31  1  1.44454489  0.03389087  -0.37433804  1
  Li  Li32  1  -0.94454489  -0.46610913  -0.87433804  1
  Li  Li33  1  1.44454489  0.46610913  -0.37433804  1
  Li  Li34  1  0.94454489  0.03389087  0.87433804  1
  Li  Li35  1  -0.44454489  0.96610913  1.37433804  1
  Li  Li36  1  0.70473551  0.25000000  0.92148346  1
  Li  Li37  1  0.79526449  0.75000000  0.42148346  1
  Li  Li38  1  0.29526449  0.75000000  0.07851654  1
  Li  Li39  1  0.20473551  0.25000000  0.57851654  1
  Li  Li40  1  0.89773487  0.04151956  0.52551964  1
  Li  Li41  1  0.60226513  0.95848044  0.02551964  1
  Li  Li42  1  0.10226513  0.54151956  0.47448036  1
  Li  Li43  1  0.39773487  0.45848044  0.97448036  1
  Li  Li44  1  0.10226513  0.95848044  0.47448036  1
  Li  Li45  1  0.39773487  0.04151956  0.97448036  1
  Li  Li46  1  0.89773487  0.45848044  0.52551964  1
  Li  Li47  1  0.60226513  0.54151956  0.02551964  1
