# generated using pymatgen
data_LiF
_symmetry_space_group_name_H-M   'P 1'
_cell_length_a   13.64267923
_cell_length_b   13.64267923
_cell_length_c   9.95376149
_cell_angle_alpha   90.00000000
_cell_angle_beta   90.00000000
_cell_angle_gamma   90.00000000
_symmetry_Int_Tables_number   1
_chemical_formula_structural   LiF
_chemical_formula_sum   'Li64 F64'
_cell_volume   1852.62092930
_cell_formula_units_Z   64
loop_
 _symmetry_equiv_pos_site_id
 _symmetry_equiv_pos_as_xyz
  1  'x, y, z'
loop_
 _atom_site_type_symbol
 _atom_site_label
 _atom_site_symmetry_multiplicity
 _atom_site_fract_x
 _atom_site_fract_y
 _atom_site_fract_z
 _atom_site_occupancy
  F  F0  1  0.47739128  0.28176752  0.46131241  1
  F  F1  1  0.02260872  -0.28176752  0.96131241  1
  F  F2  1  -0.03176752  1.22739128  0.71131241  1
  F  F3  1  0.53176752  -0.22739128  1.21131241  1
  F  F4  1  0.02260872  0.28176752  -0.46131241  1
  F  F5  1  0.47739128  -0.28176752  0.03868759  1
  F  F6  1  0.53176752  1.22739128  0.28868759  1
  F  F7  1  -0.03176752  -0.22739128  -0.21131241  1
  F  F8  1  -0.47739128  -0.28176752  -0.46131241  1
  F  F9  1  0.97739128  0.28176752  0.03868759  1
  F  F10  1  1.03176752  -0.22739128  0.28868759  1
  F  F11  1  0.46823248  1.22739128  -0.21131241  1
  F  F12  1  0.97739128  -0.28176752  0.46131241  1
  F  F13  1  -0.47739128  0.28176752  0.96131241  1
  F  F14  1  0.46823248  -0.22739128  0.71131241  1
  F  F15  1  1.03176752  1.22739128  1.21131241  1
  F  F16  1  0.97739128  0.78176752  0.96131241  1
  F  F17  1  0.52260872  0.21823248  1.46131241  1
  F  F18  1  0.46823248  1.72739128  1.21131241  1
  F  F19  1  1.03176752  0.27260872  1.71131241  1
  F  F20  1  0.52260872  0.78176752  0.03868759  1
  F  F21  1  0.97739128  0.21823248  0.53868759  1
  F  F22  1  1.03176752  1.72739128  0.78868759  1
  F  F23  1  0.46823248  0.27260872  0.28868759  1
  F  F24  1  0.02260872  0.21823248  0.03868759  1
  F  F25  1  1.47739128  0.78176752  0.53868759  1
  F  F26  1  1.53176752  0.27260872  0.78868759  1
  F  F27  1  0.96823248  1.72739128  0.28868759  1
  F  F28  1  1.47739128  0.21823248  0.96131241  1
  F  F29  1  0.02260872  0.78176752  1.46131241  1
  F  F30  1  0.96823248  0.27260872  1.21131241  1
  F  F31  1  1.53176752  1.72739128  1.71131241  1
  F  F32  1  0.21611749  0.10227285  0.40208632  1
  F  F33  1  0.28388251  0.89772715  0.90208632  1
  F  F34  1  0.14772715  0.96611749  0.65208632  1
  F  F35  1  0.35227285  0.03388251  0.15208632  1
  F  F36  1  0.28388251  0.10227285  0.59791368  1
  F  F37  1  0.21611749  0.89772715  0.09791368  1
  F  F38  1  0.35227285  0.96611749  0.34791368  1
  F  F39  1  0.14772715  0.03388251  0.84791368  1
  F  F40  1  0.78388251  0.89772715  0.59791368  1
  F  F41  1  0.71611749  0.10227285  0.09791368  1
  F  F42  1  0.85227285  0.03388251  0.34791368  1
  F  F43  1  0.64772715  0.96611749  0.84791368  1
  F  F44  1  0.71611749  0.89772715  0.40208632  1
  F  F45  1  0.78388251  0.10227285  0.90208632  1
  F  F46  1  0.64772715  0.03388251  0.65208632  1
  F  F47  1  0.85227285  0.96611749  0.15208632  1
  F  F48  1  0.71611749  0.60227285  0.90208632  1
  F  F49  1  0.78388251  0.39772715  0.40208632  1
  F  F50  1  0.64772715  0.46611749  0.15208632  1
  F  F51  1  0.85227285  0.53388251  0.65208632  1
  F  F52  1  0.78388251  0.60227285  0.09791368  1
  F  F53  1  0.71611749  0.39772715  0.59791368  1
  F  F54  1  0.85227285  0.46611749  0.84791368  1
  F  F55  1  0.64772715  0.53388251  0.34791368  1
  F  F56  1  0.28388251  0.39772715  0.09791368  1
  F  F57  1  0.21611749  0.60227285  0.59791368  1
  F  F58  1  0.35227285  0.53388251  0.84791368  1
  F  F59  1  0.14772715  0.46611749  0.34791368  1
  F  F60  1  0.21611749  0.39772715  0.90208632  1
  F  F61  1  0.28388251  0.60227285  0.40208632  1
  F  F62  1  0.14772715  0.53388251  0.15208632  1
  F  F63  1  0.35227285  0.46611749  0.65208632  1
  Li  Li64  1  0.89433292  0.39599525  0.42340947  1
  Li  Li65  1  0.60566708  0.60400475  0.92340947  1
  Li  Li66  1  0.85400475  0.64433292  0.67340947  1
  Li  Li67  1  0.64599525  0.35566708  0.17340947  1
  Li  Li68  1  0.60566708  0.39599525  0.57659053  1
  Li  Li69  1  0.89433292  0.60400475  0.07659053  1
  Li  Li70  1  0.64599525  0.64433292  0.32659053  1
  Li  Li71  1  0.85400475  0.35566708  0.82659053  1
  Li  Li72  1  0.10566708  0.60400475  0.57659053  1
  Li  Li73  1  0.39433292  0.39599525  0.07659053  1
  Li  Li74  1  0.14599525  0.35566708  0.32659053  1
  Li  Li75  1  0.35400475  0.64433292  0.82659053  1
  Li  Li76  1  0.39433292  0.60400475  0.42340947  1
  Li  Li77  1  0.10566708  0.39599525  0.92340947  1
  Li  Li78  1  0.35400475  0.35566708  0.67340947  1
  Li  Li79  1  0.14599525  0.64433292  0.17340947  1
  Li  Li80  1  0.39433292  0.89599525  0.92340947  1
  Li  Li81  1  0.10566708  0.10400475  0.42340947  1
  Li  Li82  1  0.35400475  0.14433292  0.17340947  1
  Li  Li83  1  0.14599525  0.85566708  0.67340947  1
  Li  Li84  1  0.10566708  0.89599525  0.07659053  1
  Li  Li85  1  0.39433292  0.10400475  0.57659053  1
  Li  Li86  1  0.14599525  0.14433292  0.82659053  1
  Li  Li87  1  0.35400475  0.85566708  0.32659053  1
  Li  Li88  1  0.60566708  0.10400475  0.07659053  1
  Li  Li89  1  0.89433292  0.89599525  0.57659053  1
  Li  Li90  1  0.64599525  0.85566708  0.82659053  1
  Li  Li91  1  0.85400475  0.14433292  0.32659053  1
  Li  Li92  1  0.89433292  0.10400475  0.92340947  1
  Li  Li93  1  0.60566708  0.89599525  0.42340947  1
  Li  Li94  1  0.85400475  0.85566708  0.17340947  1
  Li  Li95  1  0.64599525  0.14433292  0.67340947  1
  Li  Li96  1  0.00000000  0.25000000  0.12500000  1
  Li  Li97  1  0.00000000  0.75000000  0.37500000  1
  Li  Li98  1  0.00000000  0.75000000  0.87500000  1
  Li  Li99  1  0.00000000  0.25000000  0.62500000  1
  Li  Li100  1  0.50000000  0.75000000  0.62500000  1
  Li  Li101  1  0.50000000  0.25000000  0.87500000  1
  Li  Li102  1  0.50000000  0.25000000  0.37500000  1
  Li  Li103  1  0.50000000  0.75000000  0.12500000  1
  Li  Li104  1  0.43315318  -0.00000000  0.25000000  1
  Li  Li105  1  0.06684682  0.00000000  0.75000000  1
  Li  Li106  1  0.25000000  0.18315318  0.50000000  1
  Li  Li107  1  0.25000000  0.81684682  -0.00000000  1
  Li  Li108  1  0.56684682  0.00000000  0.75000000  1
  Li  Li109  1  0.93315318  -0.00000000  0.25000000  1
  Li  Li110  1  0.75000000  0.81684682  0.50000000  1
  Li  Li111  1  0.75000000  0.18315318  0.00000000  1
  Li  Li112  1  0.93315318  0.50000000  0.75000000  1
  Li  Li113  1  0.56684682  0.50000000  0.25000000  1
  Li  Li114  1  0.75000000  0.68315318  -0.00000000  1
  Li  Li115  1  0.75000000  0.31684682  0.50000000  1
  Li  Li116  1  0.06684682  0.50000000  0.25000000  1
  Li  Li117  1  0.43315318  0.50000000  0.75000000  1
  Li  Li118  1  0.25000000  0.31684682  0.00000000  1
  Li  Li119  1  0.25000000  0.68315318  0.50000000  1
  Li  Li120  1  0.00000000  0.25000000  0.37500000  1
  Li  Li121  1  0.00000000  0.75000000  0.62500000  1
  Li  Li122  1  0.50000000  0.25000000  0.62500000  1
  Li  Li123  1  0.50000000  0.75000000  0.37500000  1
  Li  Li124  1  0.50000000  0.75000000  0.87500000  1
  Li  Li125  1  0.50000000  0.25000000  0.12500000  1
  Li  Li126  1  0.00000000  0.75000000  0.12500000  1
  Li  Li127  1  0.00000000  0.25000000  0.87500000  1
