# generated using pymatgen
data_LiF
_symmetry_space_group_name_H-M   'P 1'
_cell_length_a   10.11787376
_cell_length_b   10.11787376
_cell_length_c   7.69794155
_cell_angle_alpha   90.00000000
_cell_angle_beta   90.00000000
_cell_angle_gamma   120.00000000
_symmetry_Int_Tables_number   1
_chemical_formula_structural   LiF
_chemical_formula_sum   'Li21 F21'
_cell_volume   682.47029573
_cell_formula_units_Z   21
loop_
 _symmetry_equiv_pos_site_id
 _symmetry_equiv_pos_as_xyz
  1  'x, y, z'
loop_
 _atom_site_type_symbol
 _atom_site_label
 _atom_site_symmetry_multiplicity
 _atom_site_fract_x
 _atom_site_fract_y
 _atom_site_fract_z
 _atom_site_occupancy
  F  F0  1  0.22869872  0.98160861  0.89222199  1
  F  F1  1  0.01839139  0.24709011  0.89222199  1
  F  F2  1  0.75290989  0.77130128  0.89222199  1
  F  F3  1  0.01839139  0.77130128  0.10777801  1
  F  F4  1  0.75290989  0.98160861  0.10777801  1
  F  F5  1  0.22869872  0.24709011  0.10777801  1
  F  F6  1  0.14982802  0.02295516  0.12214752  1
  F  F7  1  0.97704484  0.12687285  0.12214752  1
  F  F8  1  0.87312715  0.85017198  0.12214752  1
  F  F9  1  0.97704484  0.85017198  0.87785248  1
  F  F10  1  0.87312715  0.02295516  0.87785248  1
  F  F11  1  0.14982802  0.12687285  0.87785248  1
  F  F12  1  0.30338912  0.45574616  0.41105318  1
  F  F13  1  0.54425384  0.84764296  0.41105318  1
  F  F14  1  0.15235704  0.69661088  0.41105318  1
  F  F15  1  0.54425384  0.69661088  0.58894682  1
  F  F16  1  0.15235704  0.45574616  0.58894682  1
  F  F17  1  0.30338912  0.84764296  0.58894682  1
  F  F18  1  0.66666667  0.33333333  0.00000000  1
  F  F19  1  0.00000000  0.00000000  0.74595518  1
  F  F20  1  0.00000000  0.00000000  0.25404482  1
  Li  Li21  1  0.60410807  0.03662720  0.77881001  1
  Li  Li22  1  -0.03662720  0.56748087  0.77881001  1
  Li  Li23  1  -0.56748087  -0.60410807  0.77881001  1
  Li  Li24  1  -0.03662720  -0.60410807  -0.77881001  1
  Li  Li25  1  -0.56748087  0.03662720  -0.77881001  1
  Li  Li26  1  0.60410807  0.56748087  -0.77881001  1
  Li  Li27  1  0.57880997  0.13968704  0.62519357  1
  Li  Li28  1  0.86031296  0.43912293  0.62519357  1
  Li  Li29  1  0.56087707  0.42119003  0.62519357  1
  Li  Li30  1  0.86031296  0.42119003  0.37480643  1
  Li  Li31  1  0.56087707  0.13968704  0.37480643  1
  Li  Li32  1  0.57880997  0.43912293  0.37480643  1
  Li  Li33  1  0.72674264  0.11543027  0.41400671  1
  Li  Li34  1  0.88456973  0.61131237  0.41400671  1
  Li  Li35  1  0.38868763  0.27325736  0.41400671  1
  Li  Li36  1  0.88456973  0.27325736  0.58599329  1
  Li  Li37  1  0.38868763  0.11543027  0.58599329  1
  Li  Li38  1  0.72674264  0.61131237  0.58599329  1
  Li  Li39  1  0.33333333  0.66666667  0.00000000  1
  Li  Li40  1  0.33333333  0.66666667  0.50000000  1
  Li  Li41  1  0.00000000  0.00000000  0.50000000  1
