# generated using pymatgen
data_LiF
_symmetry_space_group_name_H-M   'P 1'
_cell_length_a   9.55443490
_cell_length_b   9.55443490
_cell_length_c   9.45092290
_cell_angle_alpha   90.00000000
_cell_angle_beta   90.00000000
_cell_angle_gamma   120.00000000
_symmetry_Int_Tables_number   1
_chemical_formula_structural   LiF
_chemical_formula_sum   'Li24 F24'
_cell_volume   747.16215043
_cell_formula_units_Z   24
loop_
 _symmetry_equiv_pos_site_id
 _symmetry_equiv_pos_as_xyz
  1  'x, y, z'
loop_
 _atom_site_type_symbol
 _atom_site_label
 _atom_site_symmetry_multiplicity
 _atom_site_fract_x
 _atom_site_fract_y
 _atom_site_fract_z
 _atom_site_occupancy
  F  F0  1  0.27297764  0.41458677  0.10632267  1
  F  F1  1  -0.41458677  -0.14160913  0.10632267  1
  F  F2  1  0.14160913  -0.27297764  0.10632267  1
  F  F3  1  -0.27297764  -0.41458677  0.60632267  1
  F  F4  1  0.41458677  0.14160913  0.60632267  1
  F  F5  1  -0.14160913  0.27297764  0.60632267  1
  F  F6  1  0.41458677  0.27297764  -0.10632267  1
  F  F7  1  -0.14160913  -0.41458677  -0.10632267  1
  F  F8  1  -0.27297764  0.14160913  -0.10632267  1
  F  F9  1  -0.41458677  -0.27297764  0.39367733  1
  F  F10  1  0.14160913  0.41458677  0.39367733  1
  F  F11  1  0.27297764  -0.14160913  0.39367733  1
  F  F12  1  -0.27297764  -0.41458677  -0.10632267  1
  F  F13  1  0.41458677  0.14160913  -0.10632267  1
  F  F14  1  -0.14160913  0.27297764  -0.10632267  1
  F  F15  1  0.27297764  0.41458677  0.39367733  1
  F  F16  1  -0.41458677  -0.14160913  0.39367733  1
  F  F17  1  0.14160913  -0.27297764  0.39367733  1
  F  F18  1  -0.41458677  -0.27297764  0.10632267  1
  F  F19  1  0.14160913  0.41458677  0.10632267  1
  F  F20  1  0.27297764  -0.14160913  0.10632267  1
  F  F21  1  0.41458677  0.27297764  0.60632267  1
  F  F22  1  -0.14160913  -0.41458677  0.60632267  1
  F  F23  1  -0.27297764  0.14160913  0.60632267  1
  Li  Li24  1  0.86583743  0.30879442  0.99674497  1
  Li  Li25  1  0.69120558  0.55704301  0.99674497  1
  Li  Li26  1  0.44295699  0.13416257  0.99674497  1
  Li  Li27  1  0.13416257  0.69120558  0.49674497  1
  Li  Li28  1  0.30879442  0.44295699  0.49674497  1
  Li  Li29  1  0.55704301  0.86583743  0.49674497  1
  Li  Li30  1  0.30879442  0.86583743  0.00325503  1
  Li  Li31  1  0.55704301  0.69120558  0.00325503  1
  Li  Li32  1  0.13416257  0.44295699  0.00325503  1
  Li  Li33  1  0.69120558  0.13416257  0.50325503  1
  Li  Li34  1  0.44295699  0.30879442  0.50325503  1
  Li  Li35  1  0.86583743  0.55704301  0.50325503  1
  Li  Li36  1  0.13416257  0.69120558  0.00325503  1
  Li  Li37  1  0.30879442  0.44295699  0.00325503  1
  Li  Li38  1  0.55704301  0.86583743  0.00325503  1
  Li  Li39  1  0.86583743  0.30879442  0.50325503  1
  Li  Li40  1  0.69120558  0.55704301  0.50325503  1
  Li  Li41  1  0.44295699  0.13416257  0.50325503  1
  Li  Li42  1  0.69120558  0.13416257  0.99674497  1
  Li  Li43  1  0.44295699  0.30879442  0.99674497  1
  Li  Li44  1  0.86583743  0.55704301  0.99674497  1
  Li  Li45  1  0.30879442  0.86583743  0.49674497  1
  Li  Li46  1  0.55704301  0.69120558  0.49674497  1
  Li  Li47  1  0.13416257  0.44295699  0.49674497  1
