# generated using pymatgen
data_LiF
_symmetry_space_group_name_H-M   'P 1'
_cell_length_a   6.62104573
_cell_length_b   6.62104573
_cell_length_c   35.88915378
_cell_angle_alpha   90.00000000
_cell_angle_beta   90.00000000
_cell_angle_gamma   120.00000000
_symmetry_Int_Tables_number   1
_chemical_formula_structural   LiF
_chemical_formula_sum   'Li55 F55'
_cell_volume   1362.53298755
_cell_formula_units_Z   55
loop_
 _symmetry_equiv_pos_site_id
 _symmetry_equiv_pos_as_xyz
  1  'x, y, z'
loop_
 _atom_site_type_symbol
 _atom_site_label
 _atom_site_symmetry_multiplicity
 _atom_site_fract_x
 _atom_site_fract_y
 _atom_site_fract_z
 _atom_site_occupancy
  F  F0  1  0.83925158  0.23648257  0.30761161  1
  F  F1  1  0.76351743  0.60276902  0.30761161  1
  F  F2  1  0.39723098  0.16074842  0.30761161  1
  F  F3  1  0.76351743  0.16074842  0.69238839  1
  F  F4  1  0.39723098  0.23648257  0.69238839  1
  F  F5  1  0.83925158  0.60276902  0.69238839  1
  F  F6  1  0.55275470  0.28107720  0.71845629  1
  F  F7  1  0.71892280  0.27167749  0.71845629  1
  F  F8  1  0.72832251  0.44724530  0.71845629  1
  F  F9  1  0.71892280  0.44724530  0.28154371  1
  F  F10  1  0.72832251  0.28107720  0.28154371  1
  F  F11  1  0.55275470  0.27167749  0.28154371  1
  F  F12  1  0.01029741  0.11151009  0.20416122  1
  F  F13  1  0.88848991  0.89878732  0.20416122  1
  F  F14  1  0.10121268  0.98970259  0.20416122  1
  F  F15  1  0.88848991  0.98970259  0.79583878  1
  F  F16  1  0.10121268  0.11151009  0.79583878  1
  F  F17  1  0.01029741  0.89878732  0.79583878  1
  F  F18  1  0.53558239  0.48041239  0.07951124  1
  F  F19  1  0.51958761  0.05517000  0.07951124  1
  F  F20  1  0.94483000  0.46441761  0.07951124  1
  F  F21  1  0.51958761  0.46441761  0.92048876  1
  F  F22  1  0.94483000  0.48041239  0.92048876  1
  F  F23  1  0.53558239  0.05517000  0.92048876  1
  F  F24  1  0.98242520  0.36578557  0.77172548  1
  F  F25  1  0.63421443  0.61663963  0.77172548  1
  F  F26  1  0.38336037  0.01757480  0.77172548  1
  F  F27  1  0.63421443  0.01757480  0.22827452  1
  F  F28  1  0.38336037  0.36578557  0.22827452  1
  F  F29  1  0.98242520  0.61663963  0.22827452  1
  F  F30  1  0.00000000  0.00000000  0.50000000  1
  F  F31  1  0.17495514  0.75334703  0.15755078  1
  F  F32  1  0.24665297  0.42160811  0.15755078  1
  F  F33  1  0.57839189  0.82504486  0.15755078  1
  F  F34  1  0.24665297  0.82504486  0.84244922  1
  F  F35  1  0.57839189  0.75334703  0.84244922  1
  F  F36  1  0.17495514  0.42160811  0.84244922  1
  F  F37  1  0.57451820  0.26366079  0.18417056  1
  F  F38  1  0.73633921  0.31085741  0.18417056  1
  F  F39  1  0.68914259  0.42548180  0.18417056  1
  F  F40  1  0.73633921  0.42548180  0.81582944  1
  F  F41  1  0.68914259  0.26366079  0.81582944  1
  F  F42  1  0.57451820  0.31085741  0.81582944  1
  F  F43  1  0.63482377  0.04746534  0.61636858  1
  F  F44  1  0.95253466  0.58735843  0.61636858  1
  F  F45  1  0.41264157  0.36517623  0.61636858  1
  F  F46  1  0.95253466  0.36517623  0.38363142  1
  F  F47  1  0.41264157  0.04746534  0.38363142  1
  F  F48  1  0.63482377  0.58735843  0.38363142  1
  F  F49  1  0.61872125  0.56242795  0.44005127  1
  F  F50  1  0.43757205  0.05629330  0.44005127  1
  F  F51  1  0.94370670  0.38127875  0.44005127  1
  F  F52  1  0.43757205  0.38127875  0.55994873  1
  F  F53  1  0.94370670  0.56242795  0.55994873  1
  F  F54  1  0.61872125  0.05629330  0.55994873  1
  Li  Li55  1  0.36039776  0.00336199  0.95433607  1
  Li  Li56  1  -0.00336199  0.35703577  0.95433607  1
  Li  Li57  1  -0.35703577  -0.36039776  0.95433607  1
  Li  Li58  1  -0.00336199  -0.36039776  -0.95433607  1
  Li  Li59  1  -0.35703577  0.00336199  -0.95433607  1
  Li  Li60  1  0.36039776  0.35703577  -0.95433607  1
  Li  Li61  1  0.12074154  0.41769712  0.30778401  1
  Li  Li62  1  0.58230288  0.70304442  0.30778401  1
  Li  Li63  1  0.29695558  0.87925846  0.30778401  1
  Li  Li64  1  0.58230288  0.87925846  0.69221599  1
  Li  Li65  1  0.29695558  0.41769712  0.69221599  1
  Li  Li66  1  0.12074154  0.70304442  0.69221599  1
  Li  Li67  1  0.09780124  0.58233028  0.15118967  1
  Li  Li68  1  0.41766972  0.51547097  0.15118967  1
  Li  Li69  1  0.48452903  0.90219876  0.15118967  1
  Li  Li70  1  0.41766972  0.90219876  0.84881033  1
  Li  Li71  1  0.48452903  0.58233028  0.84881033  1
  Li  Li72  1  0.09780124  0.51547097  0.84881033  1
  Li  Li73  1  0.66666667  0.33333333  0.13668807  1
  Li  Li74  1  0.66666667  0.33333333  0.86331193  1
  Li  Li75  1  0.00000000  0.00000000  0.00000000  1
  Li  Li76  1  0.26118368  0.90628779  0.88644674  1
  Li  Li77  1  0.09371221  0.35489589  0.88644674  1
  Li  Li78  1  0.64510411  0.73881632  0.88644674  1
  Li  Li79  1  0.09371221  0.73881632  0.11355326  1
  Li  Li80  1  0.64510411  0.90628779  0.11355326  1
  Li  Li81  1  0.26118368  0.35489589  0.11355326  1
  Li  Li82  1  0.59042882  0.40957118  -0.00000000  1
  Li  Li83  1  0.59042882  0.18085764  -0.00000000  1
  Li  Li84  1  0.81914236  0.40957118  -0.00000000  1
  Li  Li85  1  0.13369416  0.70892013  0.93661591  1
  Li  Li86  1  0.29107987  0.42477403  0.93661591  1
  Li  Li87  1  0.57522597  0.86630584  0.93661591  1
  Li  Li88  1  0.29107987  0.86630584  0.06338409  1
  Li  Li89  1  0.57522597  0.70892013  0.06338409  1
  Li  Li90  1  0.13369416  0.42477403  0.06338409  1
  Li  Li91  1  0.33333333  0.66666667  0.88139993  1
  Li  Li92  1  0.33333333  0.66666667  0.11860007  1
  Li  Li93  1  0.26171910  0.14603136  0.33881776  1
  Li  Li94  1  0.85396864  0.11568774  0.33881776  1
  Li  Li95  1  0.88431226  0.73828090  0.33881776  1
  Li  Li96  1  0.85396864  0.73828090  0.66118224  1
  Li  Li97  1  0.88431226  0.14603136  0.66118224  1
  Li  Li98  1  0.26171910  0.11568774  0.66118224  1
  Li  Li99  1  0.31492489  0.08177190  0.53351612  1
  Li  Li100  1  0.91822810  0.23315299  0.53351612  1
  Li  Li101  1  0.76684701  0.68507511  0.53351612  1
  Li  Li102  1  0.91822810  0.68507511  0.46648388  1
  Li  Li103  1  0.76684701  0.08177190  0.46648388  1
  Li  Li104  1  0.31492489  0.23315299  0.46648388  1
  Li  Li105  1  0.59585780  0.40414220  0.50000000  1
  Li  Li106  1  0.59585780  0.19171560  0.50000000  1
  Li  Li107  1  0.80828440  0.40414220  0.50000000  1
  Li  Li108  1  0.00000000  0.00000000  0.76053786  1
  Li  Li109  1  0.00000000  0.00000000  0.23946214  1
