# generated using pymatgen
data_Li2YP3Pb2
_symmetry_space_group_name_H-M   'P 1'
_cell_length_a   5.58983203
_cell_length_b   5.62632075
_cell_length_c   7.55327867
_cell_angle_alpha   95.29890851
_cell_angle_beta   101.08567567
_cell_angle_gamma   109.07612379
_symmetry_Int_Tables_number   1
_chemical_formula_structural   Li2YP3Pb2
_chemical_formula_sum   'Li2 Y1 P3 Pb2'
_cell_volume   217.21143015
_cell_formula_units_Z   1
loop_
 _symmetry_equiv_pos_site_id
 _symmetry_equiv_pos_as_xyz
  1  'x, y, z'
loop_
 _atom_site_type_symbol
 _atom_site_label
 _atom_site_symmetry_multiplicity
 _atom_site_fract_x
 _atom_site_fract_y
 _atom_site_fract_z
 _atom_site_occupancy
  Pb  Pb0  1  0.00000000  0.00000000  0.00000000  1
  Pb  Pb1  1  0.33300000  0.66700000  0.25000000  1
  P  P2  1  0.66700000  0.33300000  0.50000000  1
  P  P3  1  0.00000000  0.00000000  0.75000000  1
  P  P4  1  0.99672532  0.24772337  0.03373698  1
  Li  Li5  1  0.65515729  0.23080262  0.57013943  1
  Li  Li6  1  0.57158398  0.00622510  0.93008417  1
  Y  Y7  1  0.76714207  0.02947604  0.85823454  1
