# generated using pymatgen
data_LiF
_symmetry_space_group_name_H-M   'P 1'
_cell_length_a   9.80005079
_cell_length_b   9.80005079
_cell_length_c   11.58272985
_cell_angle_alpha   90.00000000
_cell_angle_beta   90.00000000
_cell_angle_gamma   120.00000000
_symmetry_Int_Tables_number   1
_chemical_formula_structural   LiF
_chemical_formula_sum   'Li30 F30'
_cell_volume   963.38130034
_cell_formula_units_Z   30
loop_
 _symmetry_equiv_pos_site_id
 _symmetry_equiv_pos_as_xyz
  1  'x, y, z'
loop_
 _atom_site_type_symbol
 _atom_site_label
 _atom_site_symmetry_multiplicity
 _atom_site_fract_x
 _atom_site_fract_y
 _atom_site_fract_z
 _atom_site_occupancy
  F  F0  1  0.33333333  0.66666667  0.81681932  1
  F  F1  1  0.66666667  0.33333333  0.31681932  1
  F  F2  1  0.66666667  0.33333333  0.18318068  1
  F  F3  1  0.33333333  0.66666667  0.68318068  1
  F  F4  1  0.68131905  0.67941461  0.25000000  1
  F  F5  1  0.32058539  0.00190444  0.25000000  1
  F  F6  1  0.99809556  0.31868095  0.25000000  1
  F  F7  1  0.31868095  0.32058539  0.75000000  1
  F  F8  1  0.67941461  0.99809556  0.75000000  1
  F  F9  1  0.00190444  0.68131905  0.75000000  1
  F  F10  1  0.12971676  0.70191554  0.25000000  1
  F  F11  1  0.29808446  0.42780122  0.25000000  1
  F  F12  1  0.57219878  0.87028324  0.25000000  1
  F  F13  1  0.87028324  0.29808446  0.75000000  1
  F  F14  1  0.70191554  0.57219878  0.75000000  1
  F  F15  1  0.42780122  0.12971676  0.75000000  1
  F  F16  1  0.04887845  0.40848081  0.30241143  1
  F  F17  1  -0.40848081  -0.35960236  0.30241143  1
  F  F18  1  0.35960236  -0.04887845  0.30241143  1
  F  F19  1  -0.04887845  -0.40848081  0.80241143  1
  F  F20  1  0.40848081  0.35960236  0.80241143  1
  F  F21  1  -0.35960236  0.04887845  0.80241143  1
  F  F22  1  -0.04887845  -0.40848081  -0.30241143  1
  F  F23  1  0.40848081  0.35960236  -0.30241143  1
  F  F24  1  -0.35960236  0.04887845  -0.30241143  1
  F  F25  1  0.04887845  0.40848081  0.19758857  1
  F  F26  1  -0.40848081  -0.35960236  0.19758857  1
  F  F27  1  0.35960236  -0.04887845  0.19758857  1
  F  F28  1  0.00000000  0.00000000  0.25000000  1
  F  F29  1  0.00000000  0.00000000  0.75000000  1
  Li  Li30  1  0.00000000  0.00000000  0.00000000  1
  Li  Li31  1  0.00000000  0.00000000  0.50000000  1
  Li  Li32  1  0.47344836  0.84439296  0.15639366  1
  Li  Li33  1  0.15560704  0.62905540  0.15639366  1
  Li  Li34  1  0.37094460  0.52655164  0.15639366  1
  Li  Li35  1  0.52655164  0.15560704  0.65639366  1
  Li  Li36  1  0.84439296  0.37094460  0.65639366  1
  Li  Li37  1  0.62905540  0.47344836  0.65639366  1
  Li  Li38  1  0.52655164  0.15560704  0.84360634  1
  Li  Li39  1  0.84439296  0.37094460  0.84360634  1
  Li  Li40  1  0.62905540  0.47344836  0.84360634  1
  Li  Li41  1  0.47344836  0.84439296  0.34360634  1
  Li  Li42  1  0.15560704  0.62905540  0.34360634  1
  Li  Li43  1  0.37094460  0.52655164  0.34360634  1
  Li  Li44  1  0.33333333  0.66666667  0.10570751  1
  Li  Li45  1  0.66666667  0.33333333  0.60570751  1
  Li  Li46  1  0.66666667  0.33333333  0.89429249  1
  Li  Li47  1  0.33333333  0.66666667  0.39429249  1
  Li  Li48  1  0.50000000  0.00000000  0.00000000  1
  Li  Li49  1  0.00000000  0.50000000  0.00000000  1
  Li  Li50  1  0.50000000  0.50000000  0.00000000  1
  Li  Li51  1  0.50000000  0.00000000  0.50000000  1
  Li  Li52  1  0.00000000  0.50000000  0.50000000  1
  Li  Li53  1  0.50000000  0.50000000  0.50000000  1
  Li  Li54  1  0.75681276  0.01381231  0.25000000  1
  Li  Li55  1  0.98618769  0.74300046  0.25000000  1
  Li  Li56  1  0.25699954  0.24318724  0.25000000  1
  Li  Li57  1  0.24318724  0.98618769  0.75000000  1
  Li  Li58  1  0.01381231  0.25699954  0.75000000  1
  Li  Li59  1  0.74300046  0.75681276  0.75000000  1
