# generated using pymatgen
data_LiF
_symmetry_space_group_name_H-M   'P 1'
_cell_length_a   9.65891544
_cell_length_b   9.65891544
_cell_length_c   18.76133492
_cell_angle_alpha   90.00000000
_cell_angle_beta   90.00000000
_cell_angle_gamma   120.00000000
_symmetry_Int_Tables_number   1
_chemical_formula_structural   LiF
_chemical_formula_sum   'Li40 F40'
_cell_volume   1515.83208701
_cell_formula_units_Z   40
loop_
 _symmetry_equiv_pos_site_id
 _symmetry_equiv_pos_as_xyz
  1  'x, y, z'
loop_
 _atom_site_type_symbol
 _atom_site_label
 _atom_site_symmetry_multiplicity
 _atom_site_fract_x
 _atom_site_fract_y
 _atom_site_fract_z
 _atom_site_occupancy
  F  F0  1  0.41724257  0.58275743  0.00000000  1
  F  F1  1  0.41724257  0.83448514  0.00000000  1
  F  F2  1  0.16551486  0.58275743  0.00000000  1
  F  F3  1  0.38729553  0.64276882  0.39522792  1
  F  F4  1  0.35723118  0.74452671  0.39522792  1
  F  F5  1  0.25547329  0.61270447  0.39522792  1
  F  F6  1  0.35723118  0.61270447  0.60477208  1
  F  F7  1  0.25547329  0.64276882  0.60477208  1
  F  F8  1  0.38729553  0.74452671  0.60477208  1
  F  F9  1  0.81710529  0.31892305  0.67157580  1
  F  F10  1  0.68107695  0.49818225  0.67157580  1
  F  F11  1  0.50181775  0.18289471  0.67157580  1
  F  F12  1  0.68107695  0.18289471  0.32842420  1
  F  F13  1  0.50181775  0.31892305  0.32842420  1
  F  F14  1  0.81710529  0.49818225  0.32842420  1
  F  F15  1  0.04767981  0.80419304  0.38151364  1
  F  F16  1  0.19580696  0.24348678  0.38151364  1
  F  F17  1  0.75651322  0.95232019  0.38151364  1
  F  F18  1  0.19580696  0.95232019  0.61848636  1
  F  F19  1  0.75651322  0.80419304  0.61848636  1
  F  F20  1  0.04767981  0.24348678  0.61848636  1
  F  F21  1  0.00000000  0.00000000  0.57743891  1
  F  F22  1  0.00000000  0.00000000  0.42256109  1
  F  F23  1  0.48040388  0.46791711  0.95321657  1
  F  F24  1  0.53208289  0.01248677  0.95321657  1
  F  F25  1  0.98751323  0.51959612  0.95321657  1
  F  F26  1  0.53208289  0.51959612  0.04678343  1
  F  F27  1  0.98751323  0.46791711  0.04678343  1
  F  F28  1  0.48040388  0.01248677  0.04678343  1
  F  F29  1  0.21530561  0.24937358  0.13628743  1
  F  F30  1  0.75062642  0.96593203  0.13628743  1
  F  F31  1  0.03406797  0.78469439  0.13628743  1
  F  F32  1  0.75062642  0.78469439  0.86371257  1
  F  F33  1  0.03406797  0.24937358  0.86371257  1
  F  F34  1  0.21530561  0.96593203  0.86371257  1
  F  F35  1  0.33333333  0.66666667  0.24739531  1
  F  F36  1  0.33333333  0.66666667  0.75260469  1
  F  F37  1  0.33333333  0.66666667  0.50000000  1
  F  F38  1  0.33333333  0.66666667  0.34901105  1
  F  F39  1  0.33333333  0.66666667  0.65098895  1
  Li  Li40  1  0.21343138  0.71326940  0.81777501  1
  Li  Li41  1  -0.71326940  -0.49983802  0.81777501  1
  Li  Li42  1  0.49983802  -0.21343138  0.81777501  1
  Li  Li43  1  -0.71326940  -0.21343138  -0.81777501  1
  Li  Li44  1  0.49983802  0.71326940  -0.81777501  1
  Li  Li45  1  0.21343138  -0.49983802  -0.81777501  1
  Li  Li46  1  0.20237227  0.93162117  0.36213216  1
  Li  Li47  1  0.06837883  0.27075110  0.36213216  1
  Li  Li48  1  0.72924890  0.79762773  0.36213216  1
  Li  Li49  1  0.06837883  0.79762773  0.63786784  1
  Li  Li50  1  0.72924890  0.93162117  0.63786784  1
  Li  Li51  1  0.20237227  0.27075110  0.63786784  1
  Li  Li52  1  0.81074882  0.59530464  0.38990836  1
  Li  Li53  1  0.40469536  0.21544417  0.38990836  1
  Li  Li54  1  0.78455583  0.18925118  0.38990836  1
  Li  Li55  1  0.40469536  0.18925118  0.61009164  1
  Li  Li56  1  0.78455583  0.59530464  0.61009164  1
  Li  Li57  1  0.81074882  0.21544417  0.61009164  1
  Li  Li58  1  0.33333333  0.66666667  0.87008313  1
  Li  Li59  1  0.33333333  0.66666667  0.12991687  1
  Li  Li60  1  0.85435846  0.14564154  0.50000000  1
  Li  Li61  1  0.85435846  0.70871692  0.50000000  1
  Li  Li62  1  0.29128308  0.14564154  0.50000000  1
  Li  Li63  1  0.53171406  0.35054552  0.67840942  1
  Li  Li64  1  0.64945448  0.18116854  0.67840942  1
  Li  Li65  1  0.81883146  0.46828594  0.67840942  1
  Li  Li66  1  0.64945448  0.46828594  0.32159058  1
  Li  Li67  1  0.81883146  0.35054552  0.32159058  1
  Li  Li68  1  0.53171406  0.18116854  0.32159058  1
  Li  Li69  1  0.12305194  0.31543054  0.71319341  1
  Li  Li70  1  0.68456946  0.80762140  0.71319341  1
  Li  Li71  1  0.19237860  0.87694806  0.71319341  1
  Li  Li72  1  0.68456946  0.87694806  0.28680659  1
  Li  Li73  1  0.19237860  0.31543054  0.28680659  1
  Li  Li74  1  0.12305194  0.80762140  0.28680659  1
  Li  Li75  1  0.66666667  0.33333333  0.50000000  1
  Li  Li76  1  0.00000000  0.00000000  0.50000000  1
  Li  Li77  1  0.48190089  0.51809911  0.00000000  1
  Li  Li78  1  0.48190089  0.96380179  0.00000000  1
  Li  Li79  1  0.03619821  0.51809911  -0.00000000  1
