# generated using pymatgen
data_LiY(Te2P)2
_symmetry_space_group_name_H-M   'P 1'
_cell_length_a   5.24789488
_cell_length_b   5.21457128
_cell_length_c   7.40237393
_cell_angle_alpha   94.97572966
_cell_angle_beta   100.83610476
_cell_angle_gamma   109.98552847
_symmetry_Int_Tables_number   1
_chemical_formula_structural   LiY(Te2P)2
_chemical_formula_sum   'Li1 Y1 Te4 P2'
_cell_volume   184.45776139
_cell_formula_units_Z   1
loop_
 _symmetry_equiv_pos_site_id
 _symmetry_equiv_pos_as_xyz
  1  'x, y, z'
loop_
 _atom_site_type_symbol
 _atom_site_label
 _atom_site_symmetry_multiplicity
 _atom_site_fract_x
 _atom_site_fract_y
 _atom_site_fract_z
 _atom_site_occupancy
  Te  Te0  1  0.00000000  0.00000000  0.00000000  1
  Te  Te1  1  0.50000000  0.50000000  0.50000000  1
  Te  Te2  1  0.50000000  0.50000000  0.00000000  1
  Te  Te3  1  0.50000000  0.00000000  0.50000000  1
  Y  Y4  1  0.00000000  0.50000000  0.50000000  1
  P  P5  1  0.19625638  0.38329818  0.23931926  1
  P  P6  1  0.70477872  0.88405521  0.92458542  1
  Li  Li7  1  0.52220954  0.30626160  0.76093934  1
