# generated using pymatgen
data_Li17Ca20F57
_symmetry_space_group_name_H-M   'P 1'
_cell_length_a   7.12166562
_cell_length_b   7.12166562
_cell_length_c   36.78452490
_cell_angle_alpha   90.00000000
_cell_angle_beta   90.00000000
_cell_angle_gamma   120.00000000
_symmetry_Int_Tables_number   1
_chemical_formula_structural   Li17Ca20F57
_chemical_formula_sum   'Li17 Ca20 F57'
_cell_volume   1615.69335740
_cell_formula_units_Z   1
loop_
 _symmetry_equiv_pos_site_id
 _symmetry_equiv_pos_as_xyz
  1  'x, y, z'
loop_
 _atom_site_type_symbol
 _atom_site_label
 _atom_site_symmetry_multiplicity
 _atom_site_fract_x
 _atom_site_fract_y
 _atom_site_fract_z
 _atom_site_occupancy
  Ca  Ca0  1  0.33333333  0.66666667  0.17526111  1
  Ca  Ca1  1  0.33333333  0.66666667  0.82473889  1
  Ca  Ca2  1  0.33333333  0.66666667  0.31801491  1
  Ca  Ca3  1  0.33333333  0.66666667  0.68198509  1
  Ca  Ca4  1  0.00000000  0.00000000  0.65330573  1
  Ca  Ca5  1  0.00000000  0.00000000  0.34669427  1
  Ca  Ca6  1  0.78128779  0.13572255  0.13252962  1
  Ca  Ca7  1  0.86427745  0.64556524  0.13252962  1
  Ca  Ca8  1  0.35443476  0.21871221  0.13252962  1
  Ca  Ca9  1  0.86427745  0.21871221  0.86747038  1
  Ca  Ca10  1  0.35443476  0.13572255  0.86747038  1
  Ca  Ca11  1  0.78128779  0.64556524  0.86747038  1
  Ca  Ca12  1  0.33333333  0.66666667  0.97437957  1
  Ca  Ca13  1  0.33333333  0.66666667  0.02562043  1
  Ca  Ca14  1  0.88763079  0.21944172  0.97210623  1
  Ca  Ca15  1  0.78055828  0.66818907  0.97210623  1
  Ca  Ca16  1  0.33181093  0.11236921  0.97210623  1
  Ca  Ca17  1  0.78055828  0.11236921  0.02789377  1
  Ca  Ca18  1  0.33181093  0.21944172  0.02789377  1
  Ca  Ca19  1  0.88763079  0.66818907  0.02789377  1
  F  F20  1  0.46172597  0.94038751  0.45288272  1
  F  F21  1  -0.94038751  -0.47866154  0.45288272  1
  F  F22  1  0.47866154  -0.46172597  0.45288272  1
  F  F23  1  -0.94038751  -0.46172597  -0.45288272  1
  F  F24  1  0.47866154  0.94038751  -0.45288272  1
  F  F25  1  0.46172597  -0.47866154  -0.45288272  1
  F  F26  1  0.32779485  0.54005818  0.00467493  1
  F  F27  1  0.45994182  0.78773667  0.00467493  1
  F  F28  1  0.21226333  0.67220515  0.00467493  1
  F  F29  1  0.45994182  0.67220515  0.99532507  1
  F  F30  1  0.21226333  0.54005818  0.99532507  1
  F  F31  1  0.32779485  0.78773667  0.99532507  1
  F  F32  1  0.73842452  0.51521274  0.33887574  1
  F  F33  1  0.48478726  0.22321179  0.33887574  1
  F  F34  1  0.77678821  0.26157548  0.33887574  1
  F  F35  1  0.48478726  0.26157548  0.66112426  1
  F  F36  1  0.77678821  0.51521274  0.66112426  1
  F  F37  1  0.73842452  0.22321179  0.66112426  1
  F  F38  1  0.00000000  0.00000000  0.00000000  1
  F  F39  1  0.56847917  0.72994155  0.52300024  1
  F  F40  1  0.27005845  0.83853762  0.52300024  1
  F  F41  1  0.16146238  0.43152083  0.52300024  1
  F  F42  1  0.27005845  0.43152083  0.47699976  1
  F  F43  1  0.16146238  0.72994155  0.47699976  1
  F  F44  1  0.56847917  0.83853762  0.47699976  1
  F  F45  1  0.44965678  0.11324015  0.61760778  1
  F  F46  1  0.88675985  0.33641663  0.61760778  1
  F  F47  1  0.66358337  0.55034322  0.61760778  1
  F  F48  1  0.88675985  0.55034322  0.38239222  1
  F  F49  1  0.66358337  0.11324015  0.38239222  1
  F  F50  1  0.44965678  0.33641663  0.38239222  1
  F  F51  1  0.13420488  0.82796062  0.94370892  1
  F  F52  1  0.17203938  0.30624426  0.94370892  1
  F  F53  1  0.69375574  0.86579512  0.94370892  1
  F  F54  1  0.17203938  0.86579512  0.05629108  1
  F  F55  1  0.69375574  0.82796062  0.05629108  1
  F  F56  1  0.13420488  0.30624426  0.05629108  1
  F  F57  1  0.54888689  0.28031846  0.88445201  1
  F  F58  1  0.71968154  0.26856843  0.88445201  1
  F  F59  1  0.73143157  0.45111311  0.88445201  1
  F  F60  1  0.71968154  0.45111311  0.11554799  1
  F  F61  1  0.73143157  0.28031846  0.11554799  1
  F  F62  1  0.54888689  0.26856843  0.11554799  1
  F  F63  1  0.47358562  0.99250979  0.91583289  1
  F  F64  1  0.00749021  0.48107584  0.91583289  1
  F  F65  1  0.51892416  0.52641438  0.91583289  1
  F  F66  1  0.00749021  0.52641438  0.08416711  1
  F  F67  1  0.51892416  0.99250979  0.08416711  1
  F  F68  1  0.47358562  0.48107584  0.08416711  1
  F  F69  1  0.00000000  0.00000000  0.50000000  1
  F  F70  1  0.89382761  0.10617239  0.00000000  1
  F  F71  1  0.89382761  0.78765523  0.00000000  1
  F  F72  1  0.21234477  0.10617239  0.00000000  1
  F  F73  1  0.39637961  0.60362039  0.50000000  1
  F  F74  1  0.39637961  0.79275922  0.50000000  1
  F  F75  1  0.20724078  0.60362039  0.50000000  1
  F  F76  1  0.66666667  0.33333333  0.00000000  1
  Li  Li77  1  0.00000000  0.00000000  0.56881530  1
  Li  Li78  1  0.00000000  0.00000000  0.43118470  1
  Li  Li79  1  0.12116154  0.87883846  0.50000000  1
  Li  Li80  1  0.12116154  0.24232307  0.50000000  1
  Li  Li81  1  0.75767693  0.87883846  0.50000000  1
  Li  Li82  1  0.23336578  0.09675915  0.81170841  1
  Li  Li83  1  0.90324085  0.13660664  0.81170841  1
  Li  Li84  1  0.86339336  0.76663422  0.81170841  1
  Li  Li85  1  0.90324085  0.76663422  0.18829159  1
  Li  Li86  1  0.86339336  0.09675915  0.18829159  1
  Li  Li87  1  0.23336578  0.13660664  0.18829159  1
  Li  Li88  1  0.50230563  0.87820151  0.61781847  1
  Li  Li89  1  0.12179849  0.62410413  0.61781847  1
  Li  Li90  1  0.37589587  0.49769437  0.61781847  1
  Li  Li91  1  0.12179849  0.49769437  0.38218153  1
  Li  Li92  1  0.37589587  0.87820151  0.38218153  1
  Li  Li93  1  0.50230563  0.62410413  0.38218153  1
