# generated using pymatgen
data_Li2Y2AsP2
_symmetry_space_group_name_H-M   'P 1'
_cell_length_a   4.55065036
_cell_length_b   4.80076895
_cell_length_c   6.57970468
_cell_angle_alpha   95.27338864
_cell_angle_beta   99.95558192
_cell_angle_gamma   107.33291730
_symmetry_Int_Tables_number   1
_chemical_formula_structural   Li2Y2AsP2
_chemical_formula_sum   'Li2 Y2 As1 P2'
_cell_volume   133.56916017
_cell_formula_units_Z   1
loop_
 _symmetry_equiv_pos_site_id
 _symmetry_equiv_pos_as_xyz
  1  'x, y, z'
loop_
 _atom_site_type_symbol
 _atom_site_label
 _atom_site_symmetry_multiplicity
 _atom_site_fract_x
 _atom_site_fract_y
 _atom_site_fract_z
 _atom_site_occupancy
  P  P0  1  0.12500000  0.12500000  0.12500000  1
  P  P1  1  0.50000000  0.50000000  0.50000000  1
  As  As2  1  0.25000000  0.25000000  0.25000000  1
  Li  Li3  1  0.75000000  0.75000000  0.75000000  1
  Li  Li4  1  0.37665664  0.12548400  0.07275466  1
  Y  Y5  1  0.99072974  0.04430751  0.86888187  1
  Y  Y6  1  0.80565696  0.87595841  0.70908286  1
