# generated using pymatgen
data_Li2Y2Cu3P2
_symmetry_space_group_name_H-M   'P 1'
_cell_length_a   4.78518686
_cell_length_b   4.87446391
_cell_length_c   6.67861561
_cell_angle_alpha   94.92436801
_cell_angle_beta   100.05413460
_cell_angle_gamma   108.72831121
_symmetry_Int_Tables_number   1
_chemical_formula_structural   Li2Y2Cu3P2
_chemical_formula_sum   'Li2 Y2 Cu3 P2'
_cell_volume   143.57468524
_cell_formula_units_Z   1
loop_
 _symmetry_equiv_pos_site_id
 _symmetry_equiv_pos_as_xyz
  1  'x, y, z'
loop_
 _atom_site_type_symbol
 _atom_site_label
 _atom_site_symmetry_multiplicity
 _atom_site_fract_x
 _atom_site_fract_y
 _atom_site_fract_z
 _atom_site_occupancy
  Y  Y0  1  0.00000000  0.00000000  0.00000000  1
  Y  Y1  1  0.33300000  0.66700000  0.25000000  1
  P  P2  1  0.66700000  0.33300000  0.50000000  1
  P  P3  1  0.00000000  0.00000000  0.75000000  1
  Li  Li4  1  0.60672424  0.70453912  0.27040662  1
  Li  Li5  1  0.23708243  0.32666296  0.95159858  1
  Cu  Cu6  1  0.70121652  0.73815506  0.15624580  1
  Cu  Cu7  1  0.47420608  0.88259880  0.73089756  1
  Cu  Cu8  1  0.42680224  0.52978950  0.16028603  1
