# generated using pymatgen
data_LiF
_symmetry_space_group_name_H-M   'P 1'
_cell_length_a   8.47176921
_cell_length_b   8.04145207
_cell_length_c   13.36852514
_cell_angle_alpha   90.00000000
_cell_angle_beta   90.00000000
_cell_angle_gamma   90.00000000
_symmetry_Int_Tables_number   1
_chemical_formula_structural   LiF
_chemical_formula_sum   'Li24 F24'
_cell_volume   910.73513367
_cell_formula_units_Z   24
loop_
 _symmetry_equiv_pos_site_id
 _symmetry_equiv_pos_as_xyz
  1  'x, y, z'
loop_
 _atom_site_type_symbol
 _atom_site_label
 _atom_site_symmetry_multiplicity
 _atom_site_fract_x
 _atom_site_fract_y
 _atom_site_fract_z
 _atom_site_occupancy
  F  F0  1  0.68195795  0.25000000  0.85035761  1
  F  F1  1  0.81804205  0.75000000  0.35035761  1
  F  F2  1  0.31804205  0.75000000  0.14964239  1
  F  F3  1  0.18195795  0.25000000  0.64964239  1
  F  F4  1  0.08470750  0.91116555  0.88679424  1
  F  F5  1  0.41529250  0.08883445  0.38679424  1
  F  F6  1  0.91529250  0.41116555  0.11320576  1
  F  F7  1  0.58470750  0.58883445  0.61320576  1
  F  F8  1  0.91529250  0.08883445  0.11320576  1
  F  F9  1  0.58470750  0.91116555  0.61320576  1
  F  F10  1  0.08470750  0.58883445  0.88679424  1
  F  F11  1  0.41529250  0.41116555  0.38679424  1
  F  F12  1  0.04080708  0.53661683  0.87854153  1
  F  F13  1  0.45919292  0.46338317  0.37854153  1
  F  F14  1  0.95919292  0.03661683  0.12145847  1
  F  F15  1  0.54080708  0.96338317  0.62145847  1
  F  F16  1  0.95919292  0.46338317  0.12145847  1
  F  F17  1  0.54080708  0.53661683  0.62145847  1
  F  F18  1  0.04080708  0.96338317  0.87854153  1
  F  F19  1  0.45919292  0.03661683  0.37854153  1
  F  F20  1  0.42289959  0.25000000  0.70885509  1
  F  F21  1  0.07710041  0.75000000  0.20885509  1
  F  F22  1  0.57710041  0.75000000  0.29114491  1
  F  F23  1  0.92289959  0.25000000  0.79114491  1
  Li  Li24  1  0.28312543  0.38833426  0.82384528  1
  Li  Li25  1  0.21687457  -0.38833426  1.32384528  1
  Li  Li26  1  -0.28312543  0.88833426  -0.82384528  1
  Li  Li27  1  0.78312543  0.11166574  -0.32384528  1
  Li  Li28  1  -0.28312543  -0.38833426  -0.82384528  1
  Li  Li29  1  0.78312543  0.38833426  -0.32384528  1
  Li  Li30  1  0.28312543  0.11166574  0.82384528  1
  Li  Li31  1  0.21687457  0.88833426  1.32384528  1
  Li  Li32  1  0.00000000  0.00000000  0.00000000  1
  Li  Li33  1  0.50000000  0.00000000  0.50000000  1
  Li  Li34  1  0.00000000  0.50000000  0.00000000  1
  Li  Li35  1  0.50000000  0.50000000  0.50000000  1
  Li  Li36  1  0.00000000  0.00000000  0.50000000  1
  Li  Li37  1  0.50000000  0.00000000  0.00000000  1
  Li  Li38  1  0.00000000  0.50000000  0.50000000  1
  Li  Li39  1  0.50000000  0.50000000  0.00000000  1
  Li  Li40  1  0.87459415  0.25000000  0.07733922  1
  Li  Li41  1  0.62540585  0.75000000  0.57733922  1
  Li  Li42  1  0.12540585  0.75000000  0.92266078  1
  Li  Li43  1  0.37459415  0.25000000  0.42266078  1
  Li  Li44  1  0.32369729  0.25000000  0.92113985  1
  Li  Li45  1  0.17630271  0.75000000  0.42113985  1
  Li  Li46  1  0.67630271  0.75000000  0.07886015  1
  Li  Li47  1  0.82369729  0.25000000  0.57886015  1
