# generated using pymatgen
data_LiCaF3
_symmetry_space_group_name_H-M   'P 1'
_cell_length_a   10.05291760
_cell_length_b   10.05291760
_cell_length_c   14.45343072
_cell_angle_alpha   90.00000000
_cell_angle_beta   90.00000000
_cell_angle_gamma   90.00000000
_symmetry_Int_Tables_number   1
_chemical_formula_structural   LiCaF3
_chemical_formula_sum   'Li18 Ca18 F54'
_cell_volume   1460.68036277
_cell_formula_units_Z   18
loop_
 _symmetry_equiv_pos_site_id
 _symmetry_equiv_pos_as_xyz
  1  'x, y, z'
loop_
 _atom_site_type_symbol
 _atom_site_label
 _atom_site_symmetry_multiplicity
 _atom_site_fract_x
 _atom_site_fract_y
 _atom_site_fract_z
 _atom_site_occupancy
  Ca  Ca0  1  0.00000000  0.50000000  0.00000000  1
  Ca  Ca1  1  0.50000000  0.00000000  0.00000000  1
  Ca  Ca2  1  0.30131063  0.30131063  0.56487757  1
  Ca  Ca3  1  0.69868937  0.69868937  0.56487757  1
  Ca  Ca4  1  0.69868937  0.30131063  0.56487757  1
  Ca  Ca5  1  0.30131063  0.69868937  0.56487757  1
  Ca  Ca6  1  0.69868937  0.30131063  0.43512243  1
  Ca  Ca7  1  0.30131063  0.69868937  0.43512243  1
  Ca  Ca8  1  0.30131063  0.30131063  0.43512243  1
  Ca  Ca9  1  0.69868937  0.69868937  0.43512243  1
  Ca  Ca10  1  0.69150323  0.50000000  0.00000000  1
  Ca  Ca11  1  0.30849677  0.50000000  0.00000000  1
  Ca  Ca12  1  0.50000000  0.69150323  0.00000000  1
  Ca  Ca13  1  0.50000000  0.30849677  0.00000000  1
  Ca  Ca14  1  0.21184783  0.50000000  0.50000000  1
  Ca  Ca15  1  0.78815217  0.50000000  0.50000000  1
  Ca  Ca16  1  0.50000000  0.21184783  0.50000000  1
  Ca  Ca17  1  0.50000000  0.78815217  0.50000000  1
  F  F18  1  0.40677512  0.00000000  0.75527208  1
  F  F19  1  0.59322488  0.00000000  0.75527208  1
  F  F20  1  0.00000000  0.40677512  0.75527208  1
  F  F21  1  0.00000000  0.59322488  0.75527208  1
  F  F22  1  0.59322488  0.00000000  0.24472792  1
  F  F23  1  0.40677512  0.00000000  0.24472792  1
  F  F24  1  0.00000000  0.40677512  0.24472792  1
  F  F25  1  0.00000000  0.59322488  0.24472792  1
  F  F26  1  0.00000000  0.50000000  0.50000000  1
  F  F27  1  0.50000000  0.00000000  0.50000000  1
  F  F28  1  0.66447215  0.86682370  0.65363153  1
  F  F29  1  -0.66447215  -0.86682370  0.65363153  1
  F  F30  1  -0.86682370  0.66447215  0.65363153  1
  F  F31  1  0.86682370  -0.66447215  0.65363153  1
  F  F32  1  -0.66447215  0.86682370  -0.65363153  1
  F  F33  1  0.66447215  -0.86682370  -0.65363153  1
  F  F34  1  0.86682370  0.66447215  -0.65363153  1
  F  F35  1  -0.86682370  -0.66447215  -0.65363153  1
  F  F36  1  -0.66447215  -0.86682370  -0.65363153  1
  F  F37  1  0.66447215  0.86682370  -0.65363153  1
  F  F38  1  0.86682370  -0.66447215  -0.65363153  1
  F  F39  1  -0.86682370  0.66447215  -0.65363153  1
  F  F40  1  0.66447215  -0.86682370  0.65363153  1
  F  F41  1  -0.66447215  0.86682370  0.65363153  1
  F  F42  1  -0.86682370  -0.66447215  0.65363153  1
  F  F43  1  0.86682370  0.66447215  0.65363153  1
  F  F44  1  0.44325021  0.50000000  0.88856075  1
  F  F45  1  0.55674979  0.50000000  0.88856075  1
  F  F46  1  0.50000000  0.44325021  0.88856075  1
  F  F47  1  0.50000000  0.55674979  0.88856075  1
  F  F48  1  0.55674979  0.50000000  0.11143925  1
  F  F49  1  0.44325021  0.50000000  0.11143925  1
  F  F50  1  0.50000000  0.44325021  0.11143925  1
  F  F51  1  0.50000000  0.55674979  0.11143925  1
  F  F52  1  0.93422391  0.50000000  0.92470404  1
  F  F53  1  0.06577609  0.50000000  0.92470404  1
  F  F54  1  0.50000000  0.93422391  0.92470404  1
  F  F55  1  0.50000000  0.06577609  0.92470404  1
  F  F56  1  0.06577609  0.50000000  0.07529596  1
  F  F57  1  0.93422391  0.50000000  0.07529596  1
  F  F58  1  0.50000000  0.93422391  0.07529596  1
  F  F59  1  0.50000000  0.06577609  0.07529596  1
  F  F60  1  0.00000000  0.00000000  0.00000000  1
  F  F61  1  0.04268022  0.04268022  0.63184651  1
  F  F62  1  0.95731978  0.95731978  0.63184651  1
  F  F63  1  0.95731978  0.04268022  0.63184651  1
  F  F64  1  0.04268022  0.95731978  0.63184651  1
  F  F65  1  0.95731978  0.04268022  0.36815349  1
  F  F66  1  0.04268022  0.95731978  0.36815349  1
  F  F67  1  0.04268022  0.04268022  0.36815349  1
  F  F68  1  0.95731978  0.95731978  0.36815349  1
  F  F69  1  0.00000000  0.00000000  0.50000000  1
  F  F70  1  0.00000000  0.00000000  0.64918158  1
  F  F71  1  0.00000000  0.00000000  0.35081842  1
  Li  Li72  1  0.33195066  0.50000000  0.86029603  1
  Li  Li73  1  0.66804934  0.50000000  0.86029603  1
  Li  Li74  1  0.50000000  0.33195066  0.86029603  1
  Li  Li75  1  0.50000000  0.66804934  0.86029603  1
  Li  Li76  1  0.66804934  0.50000000  0.13970397  1
  Li  Li77  1  0.33195066  0.50000000  0.13970397  1
  Li  Li78  1  0.50000000  0.33195066  0.13970397  1
  Li  Li79  1  0.50000000  0.66804934  0.13970397  1
  Li  Li80  1  0.50000000  0.50000000  0.00000000  1
  Li  Li81  1  0.93131414  0.93131414  0.13017080  1
  Li  Li82  1  0.06868586  0.06868586  0.13017080  1
  Li  Li83  1  0.06868586  0.93131414  0.13017080  1
  Li  Li84  1  0.93131414  0.06868586  0.13017080  1
  Li  Li85  1  0.06868586  0.93131414  0.86982920  1
  Li  Li86  1  0.93131414  0.06868586  0.86982920  1
  Li  Li87  1  0.93131414  0.93131414  0.86982920  1
  Li  Li88  1  0.06868586  0.06868586  0.86982920  1
  Li  Li89  1  0.50000000  0.50000000  0.50000000  1
