# generated using pymatgen
data_Li9Ca4Se4F9
_symmetry_space_group_name_H-M   'P 1'
_cell_length_a   6.88896581
_cell_length_b   6.88896581
_cell_length_c   9.94904549
_cell_angle_alpha   90.00000000
_cell_angle_beta   90.00000000
_cell_angle_gamma   90.00000000
_symmetry_Int_Tables_number   1
_chemical_formula_structural   Li9Ca4Se4F9
_chemical_formula_sum   'Li9 Ca4 Se4 F9'
_cell_volume   472.16030776
_cell_formula_units_Z   1
loop_
 _symmetry_equiv_pos_site_id
 _symmetry_equiv_pos_as_xyz
  1  'x, y, z'
loop_
 _atom_site_type_symbol
 _atom_site_label
 _atom_site_symmetry_multiplicity
 _atom_site_fract_x
 _atom_site_fract_y
 _atom_site_fract_z
 _atom_site_occupancy
  Ca  Ca0  1  0.27967263  0.27967263  -0.00000000  1
  Ca  Ca1  1  0.72032737  0.72032737  -0.00000000  1
  Ca  Ca2  1  0.72032737  0.27967263  -0.00000000  1
  Ca  Ca3  1  0.27967263  0.72032737  -0.00000000  1
  F  F4  1  0.00000000  0.50000000  0.95930885  1
  F  F5  1  0.50000000  0.00000000  0.95930885  1
  F  F6  1  0.00000000  0.50000000  0.04069115  1
  F  F7  1  0.50000000  0.00000000  0.04069115  1
  F  F8  1  0.50000000  0.50000000  0.25212105  1
  F  F9  1  0.50000000  0.50000000  0.74787895  1
  F  F10  1  0.00000000  0.00000000  0.64786791  1
  F  F11  1  0.00000000  0.00000000  0.35213209  1
  F  F12  1  0.50000000  0.50000000  0.50000000  1
  Li  Li13  1  0.23169109  -0.00000000  0.10139789  1
  Li  Li14  1  -0.23169109  0.00000000  0.10139789  1
  Li  Li15  1  0.00000000  0.23169109  0.10139789  1
  Li  Li16  1  0.00000000  -0.23169109  0.10139789  1
  Li  Li17  1  -0.23169109  0.00000000  -0.10139789  1
  Li  Li18  1  0.23169109  -0.00000000  -0.10139789  1
  Li  Li19  1  0.00000000  0.23169109  -0.10139789  1
  Li  Li20  1  0.00000000  -0.23169109  -0.10139789  1
  Li  Li21  1  0.00000000  0.00000000  0.00000000  1
  Se  Se22  1  0.50000000  0.50000000  0.00000000  1
  Se  Se23  1  0.00000000  0.00000000  0.86297640  1
  Se  Se24  1  0.00000000  0.00000000  0.13702360  1
  Se  Se25  1  0.00000000  0.00000000  0.50000000  1
