# generated using pymatgen
data_LiF
_symmetry_space_group_name_H-M   'P 1'
_cell_length_a   6.62008294
_cell_length_b   6.62008294
_cell_length_c   13.88630691
_cell_angle_alpha   90.00000000
_cell_angle_beta   90.00000000
_cell_angle_gamma   120.00000000
_symmetry_Int_Tables_number   1
_chemical_formula_structural   LiF
_chemical_formula_sum   'Li22 F22'
_cell_volume   527.04081819
_cell_formula_units_Z   22
loop_
 _symmetry_equiv_pos_site_id
 _symmetry_equiv_pos_as_xyz
  1  'x, y, z'
loop_
 _atom_site_type_symbol
 _atom_site_label
 _atom_site_symmetry_multiplicity
 _atom_site_fract_x
 _atom_site_fract_y
 _atom_site_fract_z
 _atom_site_occupancy
  F  F0  1  0.84059689  0.35861459  0.96783549  1
  F  F1  1  0.64138541  0.48198230  0.96783549  1
  F  F2  1  0.51801770  0.15940311  0.96783549  1
  F  F3  1  0.64138541  0.15940311  0.03216451  1
  F  F4  1  0.51801770  0.35861459  0.03216451  1
  F  F5  1  0.84059689  0.48198230  0.03216451  1
  F  F6  1  0.66666667  0.33333333  -0.00000000  1
  F  F7  1  0.59860172  0.68450565  0.65366222  1
  F  F8  1  0.31549435  0.91409608  0.65366222  1
  F  F9  1  0.08590392  0.40139828  0.65366222  1
  F  F10  1  0.31549435  0.40139828  0.34633778  1
  F  F11  1  0.08590392  0.68450565  0.34633778  1
  F  F12  1  0.59860172  0.91409608  0.34633778  1
  F  F13  1  0.33333333  0.66666667  0.00000000  1
  F  F14  1  0.63320084  0.73053832  0.82993856  1
  F  F15  1  0.26946168  0.90266252  0.82993856  1
  F  F16  1  0.09733748  0.36679916  0.82993856  1
  F  F17  1  0.26946168  0.36679916  0.17006144  1
  F  F18  1  0.09733748  0.73053832  0.17006144  1
  F  F19  1  0.63320084  0.90266252  0.17006144  1
  F  F20  1  0.00000000  0.00000000  0.42483168  1
  F  F21  1  0.00000000  0.00000000  0.57516832  1
  Li  Li22  1  0.96105422  0.58914218  0.90824988  1
  Li  Li23  1  -0.58914218  0.37191204  0.90824988  1
  Li  Li24  1  -0.37191204  -0.96105422  0.90824988  1
  Li  Li25  1  -0.58914218  -0.96105422  -0.90824988  1
  Li  Li26  1  -0.37191204  0.58914218  -0.90824988  1
  Li  Li27  1  0.96105422  0.37191204  -0.90824988  1
  Li  Li28  1  0.84422020  0.76373480  0.76164315  1
  Li  Li29  1  0.23626520  0.08048539  0.76164315  1
  Li  Li30  1  0.91951461  0.15577980  0.76164315  1
  Li  Li31  1  0.23626520  0.15577980  0.23835685  1
  Li  Li32  1  0.91951461  0.76373480  0.23835685  1
  Li  Li33  1  0.84422020  0.08048539  0.23835685  1
  Li  Li34  1  0.33333333  0.66666667  0.38625279  1
  Li  Li35  1  0.33333333  0.66666667  0.61374721  1
  Li  Li36  1  0.80442890  0.19557110  0.50000000  1
  Li  Li37  1  0.80442890  0.60885779  0.50000000  1
  Li  Li38  1  0.39114221  0.19557110  0.50000000  1
  Li  Li39  1  0.00000000  0.00000000  0.00000000  1
  Li  Li40  1  0.33333333  0.66666667  0.50000000  1
  Li  Li41  1  0.50518154  0.49481846  0.50000000  1
  Li  Li42  1  0.50518154  0.01036307  0.50000000  1
  Li  Li43  1  0.98963693  0.49481846  0.50000000  1
