# generated using pymatgen
data_LiY2Cu3(SbP)2
_symmetry_space_group_name_H-M   'P 1'
_cell_length_a   4.76352045
_cell_length_b   4.70330875
_cell_length_c   6.77002919
_cell_angle_alpha   94.93074334
_cell_angle_beta   99.07846622
_cell_angle_gamma   107.20203812
_symmetry_Int_Tables_number   1
_chemical_formula_structural   LiY2Cu3(SbP)2
_chemical_formula_sum   'Li1 Y2 Cu3 Sb2 P2'
_cell_volume   141.65689214
_cell_formula_units_Z   1
loop_
 _symmetry_equiv_pos_site_id
 _symmetry_equiv_pos_as_xyz
  1  'x, y, z'
loop_
 _atom_site_type_symbol
 _atom_site_label
 _atom_site_symmetry_multiplicity
 _atom_site_fract_x
 _atom_site_fract_y
 _atom_site_fract_z
 _atom_site_occupancy
  Cu  Cu0  1  0.12500000  0.00000000  0.25000000  1
  Cu  Cu1  1  0.00000000  0.00000000  0.00000000  1
  Cu  Cu2  1  0.37500000  0.00000000  0.25000000  1
  Y  Y3  1  0.25000000  0.25000000  0.25000000  1
  Y  Y4  1  0.00000000  0.25000000  0.12500000  1
  P  P5  1  0.52909905  0.98389522  0.78706006  1
  P  P6  1  0.61925379  0.57398434  0.77054195  1
  Li  Li7  1  0.43786716  0.22667307  0.22848939  1
  Sb  Sb8  1  0.45630645  0.87322169  0.38808440  1
  Sb  Sb9  1  0.41689852  0.54739266  0.60320474  1
