# generated using pymatgen
data_LiCaF3
_symmetry_space_group_name_H-M   'P 1'
_cell_length_a   7.98381728
_cell_length_b   7.98381728
_cell_length_c   22.59722259
_cell_angle_alpha   90.00000000
_cell_angle_beta   90.00000000
_cell_angle_gamma   90.00000000
_symmetry_Int_Tables_number   1
_chemical_formula_structural   LiCaF3
_chemical_formula_sum   'Li18 Ca18 F54'
_cell_volume   1440.37721036
_cell_formula_units_Z   18
loop_
 _symmetry_equiv_pos_site_id
 _symmetry_equiv_pos_as_xyz
  1  'x, y, z'
loop_
 _atom_site_type_symbol
 _atom_site_label
 _atom_site_symmetry_multiplicity
 _atom_site_fract_x
 _atom_site_fract_y
 _atom_site_fract_z
 _atom_site_occupancy
  Ca  Ca0  1  0.00000000  0.50000000  0.50000000  1
  Ca  Ca1  1  0.50000000  0.00000000  0.50000000  1
  Ca  Ca2  1  0.11626929  0.63648547  0.95003366  1
  Ca  Ca3  1  -0.11626929  -0.63648547  0.95003366  1
  Ca  Ca4  1  -0.63648547  0.11626929  0.95003366  1
  Ca  Ca5  1  0.63648547  -0.11626929  0.95003366  1
  Ca  Ca6  1  -0.11626929  0.63648547  -0.95003366  1
  Ca  Ca7  1  0.11626929  -0.63648547  -0.95003366  1
  Ca  Ca8  1  0.63648547  0.11626929  -0.95003366  1
  Ca  Ca9  1  -0.63648547  -0.11626929  -0.95003366  1
  Ca  Ca10  1  -0.11626929  -0.63648547  -0.95003366  1
  Ca  Ca11  1  0.11626929  0.63648547  -0.95003366  1
  Ca  Ca12  1  0.63648547  -0.11626929  -0.95003366  1
  Ca  Ca13  1  -0.63648547  0.11626929  -0.95003366  1
  Ca  Ca14  1  0.11626929  -0.63648547  0.95003366  1
  Ca  Ca15  1  -0.11626929  0.63648547  0.95003366  1
  Ca  Ca16  1  -0.63648547  -0.11626929  0.95003366  1
  Ca  Ca17  1  0.63648547  0.11626929  0.95003366  1
  F  F18  1  0.00000000  0.00000000  0.00000000  1
  F  F19  1  0.50000000  0.50000000  0.50000000  1
  F  F20  1  0.57683360  0.94716738  0.21526370  1
  F  F21  1  0.42316640  0.05283262  0.21526370  1
  F  F22  1  0.05283262  0.57683360  0.21526370  1
  F  F23  1  0.94716738  0.42316640  0.21526370  1
  F  F24  1  0.42316640  0.94716738  0.78473630  1
  F  F25  1  0.57683360  0.05283262  0.78473630  1
  F  F26  1  0.94716738  0.57683360  0.78473630  1
  F  F27  1  0.05283262  0.42316640  0.78473630  1
  F  F28  1  0.42316640  0.05283262  0.78473630  1
  F  F29  1  0.57683360  0.94716738  0.78473630  1
  F  F30  1  0.94716738  0.42316640  0.78473630  1
  F  F31  1  0.05283262  0.57683360  0.78473630  1
  F  F32  1  0.57683360  0.05283262  0.21526370  1
  F  F33  1  0.42316640  0.94716738  0.21526370  1
  F  F34  1  0.05283262  0.42316640  0.21526370  1
  F  F35  1  0.94716738  0.57683360  0.21526370  1
  F  F36  1  0.72339264  0.06946771  0.60518393  1
  F  F37  1  0.27660736  0.93053229  0.60518393  1
  F  F38  1  0.93053229  0.72339264  0.60518393  1
  F  F39  1  0.06946771  0.27660736  0.60518393  1
  F  F40  1  0.27660736  0.06946771  0.39481607  1
  F  F41  1  0.72339264  0.93053229  0.39481607  1
  F  F42  1  0.06946771  0.72339264  0.39481607  1
  F  F43  1  0.93053229  0.27660736  0.39481607  1
  F  F44  1  0.27660736  0.93053229  0.39481607  1
  F  F45  1  0.72339264  0.06946771  0.39481607  1
  F  F46  1  0.06946771  0.27660736  0.39481607  1
  F  F47  1  0.93053229  0.72339264  0.39481607  1
  F  F48  1  0.72339264  0.93053229  0.60518393  1
  F  F49  1  0.27660736  0.06946771  0.60518393  1
  F  F50  1  0.93053229  0.27660736  0.60518393  1
  F  F51  1  0.06946771  0.72339264  0.60518393  1
  F  F52  1  0.68681605  0.50000000  0.33679308  1
  F  F53  1  0.31318395  0.50000000  0.33679308  1
  F  F54  1  0.50000000  0.68681605  0.33679308  1
  F  F55  1  0.50000000  0.31318395  0.33679308  1
  F  F56  1  0.31318395  0.50000000  0.66320692  1
  F  F57  1  0.68681605  0.50000000  0.66320692  1
  F  F58  1  0.50000000  0.68681605  0.66320692  1
  F  F59  1  0.50000000  0.31318395  0.66320692  1
  F  F60  1  0.00000000  0.50000000  0.00000000  1
  F  F61  1  0.50000000  0.00000000  0.00000000  1
  F  F62  1  0.39913257  0.39913257  0.73593535  1
  F  F63  1  0.60086743  0.60086743  0.73593535  1
  F  F64  1  0.60086743  0.39913257  0.73593535  1
  F  F65  1  0.39913257  0.60086743  0.73593535  1
  F  F66  1  0.60086743  0.39913257  0.26406465  1
  F  F67  1  0.39913257  0.60086743  0.26406465  1
  F  F68  1  0.39913257  0.39913257  0.26406465  1
  F  F69  1  0.60086743  0.60086743  0.26406465  1
  F  F70  1  0.00000000  0.00000000  0.30271575  1
  F  F71  1  0.00000000  0.00000000  0.69728425  1
  Li  Li72  1  0.90462662  0.90462662  0.90028646  1
  Li  Li73  1  0.09537338  0.09537338  0.90028646  1
  Li  Li74  1  0.09537338  0.90462662  0.90028646  1
  Li  Li75  1  0.90462662  0.09537338  0.90028646  1
  Li  Li76  1  0.09537338  0.90462662  0.09971354  1
  Li  Li77  1  0.90462662  0.09537338  0.09971354  1
  Li  Li78  1  0.90462662  0.90462662  0.09971354  1
  Li  Li79  1  0.09537338  0.09537338  0.09971354  1
  Li  Li80  1  0.25669330  0.00000000  0.75408017  1
  Li  Li81  1  0.74330670  0.00000000  0.75408017  1
  Li  Li82  1  0.00000000  0.25669330  0.75408017  1
  Li  Li83  1  0.00000000  0.74330670  0.75408017  1
  Li  Li84  1  0.74330670  0.00000000  0.24591983  1
  Li  Li85  1  0.25669330  0.00000000  0.24591983  1
  Li  Li86  1  0.00000000  0.25669330  0.24591983  1
  Li  Li87  1  0.00000000  0.74330670  0.24591983  1
  Li  Li88  1  0.50000000  0.50000000  -0.00000000  1
  Li  Li89  1  0.00000000  0.00000000  0.50000000  1
