# generated using pymatgen
data_LiF
_symmetry_space_group_name_H-M   'P 1'
_cell_length_a   8.66504625
_cell_length_b   7.90580668
_cell_length_c   3.20411581
_cell_angle_alpha   90.00000000
_cell_angle_beta   90.00000000
_cell_angle_gamma   90.00000000
_symmetry_Int_Tables_number   1
_chemical_formula_structural   LiF
_chemical_formula_sum   'Li8 F8'
_cell_volume   219.49532774
_cell_formula_units_Z   8
loop_
 _symmetry_equiv_pos_site_id
 _symmetry_equiv_pos_as_xyz
  1  'x, y, z'
loop_
 _atom_site_type_symbol
 _atom_site_label
 _atom_site_symmetry_multiplicity
 _atom_site_fract_x
 _atom_site_fract_y
 _atom_site_fract_z
 _atom_site_occupancy
  F  F0  1  0.00000000  0.50000000  0.00000000  1
  F  F1  1  0.50000000  0.00000000  0.50000000  1
  F  F2  1  0.00000000  0.50000000  0.65877366  1
  F  F3  1  0.50000000  0.00000000  -0.15877366  1
  F  F4  1  0.00000000  0.50000000  -0.65877366  1
  F  F5  1  0.50000000  0.00000000  1.15877366  1
  F  F6  1  0.00000000  0.00000000  0.00000000  1
  F  F7  1  0.50000000  0.50000000  0.50000000  1
  Li  Li8  1  0.83281522  0.95822168  0.00000000  1
  Li  Li9  1  0.16718478  0.04177832  -0.00000000  1
  Li  Li10  1  0.66718478  0.45822168  0.50000000  1
  Li  Li11  1  0.33281522  0.54177832  0.50000000  1
  Li  Li12  1  0.00000000  0.00000000  0.70774185  1
  Li  Li13  1  0.50000000  0.50000000  0.79225815  1
  Li  Li14  1  0.00000000  0.00000000  0.29225815  1
  Li  Li15  1  0.50000000  0.50000000  0.20774185  1
