# generated using pymatgen
data_Li4TeF2
_symmetry_space_group_name_H-M   'P 1'
_cell_length_a   16.18700972
_cell_length_b   16.18700972
_cell_length_c   8.43013437
_cell_angle_alpha   90.00000000
_cell_angle_beta   90.00000000
_cell_angle_gamma   90.00000000
_symmetry_Int_Tables_number   1
_chemical_formula_structural   Li4TeF2
_chemical_formula_sum   'Li96 Te24 F48'
_cell_volume   2208.85776863
_cell_formula_units_Z   24
loop_
 _symmetry_equiv_pos_site_id
 _symmetry_equiv_pos_as_xyz
  1  'x, y, z'
loop_
 _atom_site_type_symbol
 _atom_site_label
 _atom_site_symmetry_multiplicity
 _atom_site_fract_x
 _atom_site_fract_y
 _atom_site_fract_z
 _atom_site_occupancy
  F  F0  1  0.35092545  0.60092545  0.12500000  1
  F  F1  1  0.14907455  0.39907455  0.62500000  1
  F  F2  1  0.64907455  0.10092545  0.37500000  1
  F  F3  1  0.85092545  0.89907455  0.87500000  1
  F  F4  1  0.64907455  0.39907455  0.87500000  1
  F  F5  1  0.85092545  0.60092545  0.37500000  1
  F  F6  1  0.35092545  0.89907455  0.62500000  1
  F  F7  1  0.14907455  0.10092545  0.12500000  1
  F  F8  1  0.85092545  0.10092545  0.62500000  1
  F  F9  1  0.64907455  0.89907455  0.12500000  1
  F  F10  1  0.14907455  0.60092545  0.87500000  1
  F  F11  1  0.35092545  0.39907455  0.37500000  1
  F  F12  1  0.14907455  0.89907455  0.37500000  1
  F  F13  1  0.35092545  0.10092545  0.87500000  1
  F  F14  1  0.85092545  0.39907455  0.12500000  1
  F  F15  1  0.64907455  0.60092545  0.62500000  1
  F  F16  1  0.00000000  0.25000000  0.16657046  1
  F  F17  1  0.00000000  0.75000000  0.41657046  1
  F  F18  1  0.50000000  0.25000000  0.83342954  1
  F  F19  1  0.50000000  0.75000000  0.58342954  1
  F  F20  1  0.00000000  0.75000000  0.83342954  1
  F  F21  1  0.00000000  0.25000000  0.58342954  1
  F  F22  1  0.50000000  0.75000000  0.16657046  1
  F  F23  1  0.50000000  0.25000000  0.41657046  1
  F  F24  1  0.50000000  0.75000000  0.66657046  1
  F  F25  1  0.50000000  0.25000000  0.91657046  1
  F  F26  1  0.00000000  0.75000000  0.33342954  1
  F  F27  1  0.00000000  0.25000000  0.08342954  1
  F  F28  1  0.50000000  0.25000000  0.33342954  1
  F  F29  1  0.50000000  0.75000000  0.08342954  1
  F  F30  1  0.00000000  0.25000000  0.66657046  1
  F  F31  1  0.00000000  0.75000000  0.91657046  1
  F  F32  1  0.89825491  0.00000000  0.25000000  1
  F  F33  1  0.60174509  0.00000000  0.75000000  1
  F  F34  1  0.25000000  0.64825491  0.50000000  1
  F  F35  1  0.25000000  0.35174509  0.00000000  1
  F  F36  1  0.10174509  0.00000000  0.75000000  1
  F  F37  1  0.39825491  0.00000000  0.25000000  1
  F  F38  1  0.75000000  0.35174509  0.50000000  1
  F  F39  1  0.75000000  0.64825491  0.00000000  1
  F  F40  1  0.39825491  0.50000000  0.75000000  1
  F  F41  1  0.10174509  0.50000000  0.25000000  1
  F  F42  1  0.75000000  0.14825491  -0.00000000  1
  F  F43  1  0.75000000  0.85174509  0.50000000  1
  F  F44  1  0.60174509  0.50000000  0.25000000  1
  F  F45  1  0.89825491  0.50000000  0.75000000  1
  F  F46  1  0.25000000  0.85174509  0.00000000  1
  F  F47  1  0.25000000  0.14825491  0.50000000  1
  Li  Li48  1  0.58869488  0.77891232  0.65209676  1
  Li  Li49  1  -0.08869488  -0.77891232  1.15209676  1
  Li  Li50  1  -0.52891232  1.33869488  0.90209676  1
  Li  Li51  1  1.02891232  -0.33869488  1.40209676  1
  Li  Li52  1  -0.08869488  0.77891232  -0.65209676  1
  Li  Li53  1  0.58869488  -0.77891232  -0.15209676  1
  Li  Li54  1  1.02891232  1.33869488  0.09790324  1
  Li  Li55  1  -0.52891232  -0.33869488  -0.40209676  1
  Li  Li56  1  -0.58869488  -0.77891232  -0.65209676  1
  Li  Li57  1  1.08869488  0.77891232  -0.15209676  1
  Li  Li58  1  1.52891232  -0.33869488  0.09790324  1
  Li  Li59  1  -0.02891232  1.33869488  -0.40209676  1
  Li  Li60  1  1.08869488  -0.77891232  0.65209676  1
  Li  Li61  1  -0.58869488  0.77891232  1.15209676  1
  Li  Li62  1  -0.02891232  -0.33869488  0.90209676  1
  Li  Li63  1  1.52891232  1.33869488  1.40209676  1
  Li  Li64  1  1.08869488  1.27891232  1.15209676  1
  Li  Li65  1  0.41130512  -0.27891232  1.65209676  1
  Li  Li66  1  -0.02891232  1.83869488  1.40209676  1
  Li  Li67  1  1.52891232  0.16130512  1.90209676  1
  Li  Li68  1  0.41130512  1.27891232  -0.15209676  1
  Li  Li69  1  1.08869488  -0.27891232  0.34790324  1
  Li  Li70  1  1.52891232  1.83869488  0.59790324  1
  Li  Li71  1  -0.02891232  0.16130512  0.09790324  1
  Li  Li72  1  -0.08869488  -0.27891232  -0.15209676  1
  Li  Li73  1  1.58869488  1.27891232  0.34790324  1
  Li  Li74  1  2.02891232  0.16130512  0.59790324  1
  Li  Li75  1  0.47108768  1.83869488  0.09790324  1
  Li  Li76  1  1.58869488  -0.27891232  1.15209676  1
  Li  Li77  1  -0.08869488  1.27891232  1.65209676  1
  Li  Li78  1  0.47108768  0.16130512  1.40209676  1
  Li  Li79  1  2.02891232  1.83869488  1.90209676  1
  Li  Li80  1  0.43323750  0.16880470  0.14540322  1
  Li  Li81  1  0.06676250  0.83119530  0.64540322  1
  Li  Li82  1  0.08119530  0.18323750  0.39540322  1
  Li  Li83  1  0.41880470  0.81676250  0.89540322  1
  Li  Li84  1  0.06676250  0.16880470  0.85459678  1
  Li  Li85  1  0.43323750  0.83119530  0.35459678  1
  Li  Li86  1  0.41880470  0.18323750  0.60459678  1
  Li  Li87  1  0.08119530  0.81676250  0.10459678  1
  Li  Li88  1  0.56676250  0.83119530  0.85459678  1
  Li  Li89  1  0.93323750  0.16880470  0.35459678  1
  Li  Li90  1  0.91880470  0.81676250  0.60459678  1
  Li  Li91  1  0.58119530  0.18323750  0.10459678  1
  Li  Li92  1  0.93323750  0.83119530  0.14540322  1
  Li  Li93  1  0.56676250  0.16880470  0.64540322  1
  Li  Li94  1  0.58119530  0.81676250  0.39540322  1
  Li  Li95  1  0.91880470  0.18323750  0.89540322  1
  Li  Li96  1  0.93323750  0.66880470  0.64540322  1
  Li  Li97  1  0.56676250  0.33119530  0.14540322  1
  Li  Li98  1  0.58119530  0.68323750  0.89540322  1
  Li  Li99  1  0.91880470  0.31676250  0.39540322  1
  Li  Li100  1  0.56676250  0.66880470  0.35459678  1
  Li  Li101  1  0.93323750  0.33119530  0.85459678  1
  Li  Li102  1  0.91880470  0.68323750  0.10459678  1
  Li  Li103  1  0.58119530  0.31676250  0.60459678  1
  Li  Li104  1  0.06676250  0.33119530  0.35459678  1
  Li  Li105  1  0.43323750  0.66880470  0.85459678  1
  Li  Li106  1  0.41880470  0.31676250  0.10459678  1
  Li  Li107  1  0.08119530  0.68323750  0.60459678  1
  Li  Li108  1  0.43323750  0.33119530  0.64540322  1
  Li  Li109  1  0.06676250  0.66880470  0.14540322  1
  Li  Li110  1  0.08119530  0.31676250  0.89540322  1
  Li  Li111  1  0.41880470  0.68323750  0.39540322  1
  Li  Li112  1  0.79280970  0.34812233  0.63308002  1
  Li  Li113  1  0.70719030  0.65187767  0.13308002  1
  Li  Li114  1  0.90187767  0.54280970  0.88308002  1
  Li  Li115  1  0.59812233  0.45719030  0.38308002  1
  Li  Li116  1  0.70719030  0.34812233  0.36691998  1
  Li  Li117  1  0.79280970  0.65187767  0.86691998  1
  Li  Li118  1  0.59812233  0.54280970  0.11691998  1
  Li  Li119  1  0.90187767  0.45719030  0.61691998  1
  Li  Li120  1  0.20719030  0.65187767  0.36691998  1
  Li  Li121  1  0.29280970  0.34812233  0.86691998  1
  Li  Li122  1  0.09812233  0.45719030  0.11691998  1
  Li  Li123  1  0.40187767  0.54280970  0.61691998  1
  Li  Li124  1  0.29280970  0.65187767  0.63308002  1
  Li  Li125  1  0.20719030  0.34812233  0.13308002  1
  Li  Li126  1  0.40187767  0.45719030  0.88308002  1
  Li  Li127  1  0.09812233  0.54280970  0.38308002  1
  Li  Li128  1  0.29280970  0.84812233  0.13308002  1
  Li  Li129  1  0.20719030  0.15187767  0.63308002  1
  Li  Li130  1  0.40187767  0.04280970  0.38308002  1
  Li  Li131  1  0.09812233  0.95719030  0.88308002  1
  Li  Li132  1  0.20719030  0.84812233  0.86691998  1
  Li  Li133  1  0.29280970  0.15187767  0.36691998  1
  Li  Li134  1  0.09812233  0.04280970  0.61691998  1
  Li  Li135  1  0.40187767  0.95719030  0.11691998  1
  Li  Li136  1  0.70719030  0.15187767  0.86691998  1
  Li  Li137  1  0.79280970  0.84812233  0.36691998  1
  Li  Li138  1  0.59812233  0.95719030  0.61691998  1
  Li  Li139  1  0.90187767  0.04280970  0.11691998  1
  Li  Li140  1  0.79280970  0.15187767  0.13308002  1
  Li  Li141  1  0.70719030  0.84812233  0.63308002  1
  Li  Li142  1  0.90187767  0.95719030  0.38308002  1
  Li  Li143  1  0.59812233  0.04280970  0.88308002  1
  Te  Te144  1  0.00000000  0.00000000  0.00000000  1
  Te  Te145  1  0.50000000  0.00000000  0.50000000  1
  Te  Te146  1  0.25000000  0.75000000  0.25000000  1
  Te  Te147  1  0.25000000  0.25000000  0.75000000  1
  Te  Te148  1  0.50000000  0.00000000  0.00000000  1
  Te  Te149  1  0.00000000  0.00000000  0.50000000  1
  Te  Te150  1  0.25000000  0.75000000  0.75000000  1
  Te  Te151  1  0.25000000  0.25000000  0.25000000  1
  Te  Te152  1  0.50000000  0.50000000  0.50000000  1
  Te  Te153  1  0.00000000  0.50000000  0.00000000  1
  Te  Te154  1  0.75000000  0.25000000  0.75000000  1
  Te  Te155  1  0.75000000  0.75000000  0.25000000  1
  Te  Te156  1  0.00000000  0.50000000  0.50000000  1
  Te  Te157  1  0.50000000  0.50000000  0.00000000  1
  Te  Te158  1  0.75000000  0.25000000  0.25000000  1
  Te  Te159  1  0.75000000  0.75000000  0.75000000  1
  Te  Te160  1  0.00000000  0.25000000  0.37500000  1
  Te  Te161  1  0.00000000  0.75000000  0.62500000  1
  Te  Te162  1  0.50000000  0.25000000  0.62500000  1
  Te  Te163  1  0.50000000  0.75000000  0.37500000  1
  Te  Te164  1  0.50000000  0.75000000  0.87500000  1
  Te  Te165  1  0.50000000  0.25000000  0.12500000  1
  Te  Te166  1  0.00000000  0.75000000  0.12500000  1
  Te  Te167  1  0.00000000  0.25000000  0.87500000  1
