# generated using pymatgen
data_LiCu3MoP2Se
_symmetry_space_group_name_H-M   'P 1'
_cell_length_a   4.39344696
_cell_length_b   4.72612371
_cell_length_c   6.39152080
_cell_angle_alpha   95.75491257
_cell_angle_beta   100.44866089
_cell_angle_gamma   108.09792076
_symmetry_Int_Tables_number   1
_chemical_formula_structural   LiCu3MoP2Se
_chemical_formula_sum   'Li1 Cu3 Mo1 P2 Se1'
_cell_volume   122.30236354
_cell_formula_units_Z   1
loop_
 _symmetry_equiv_pos_site_id
 _symmetry_equiv_pos_as_xyz
  1  'x, y, z'
loop_
 _atom_site_type_symbol
 _atom_site_label
 _atom_site_symmetry_multiplicity
 _atom_site_fract_x
 _atom_site_fract_y
 _atom_site_fract_z
 _atom_site_occupancy
  Se  Se0  1  0.12500000  0.00000000  0.25000000  1
  Cu  Cu1  1  0.00000000  0.00000000  0.00000000  1
  Cu  Cu2  1  0.37500000  0.00000000  0.25000000  1
  Cu  Cu3  1  0.25000000  0.25000000  0.25000000  1
  P  P4  1  0.00000000  0.25000000  0.12500000  1
  P  P5  1  0.50125855  0.24248722  0.92675286  1
  Mo  Mo6  1  0.44899612  0.45337250  0.90698230  1
  Li  Li7  1  0.10589732  0.10128308  0.17582165  1
