# generated using pymatgen
data_LiF
_symmetry_space_group_name_H-M   'P 1'
_cell_length_a   9.40335313
_cell_length_b   4.42909788
_cell_length_c   7.21866072
_cell_angle_alpha   90.00000000
_cell_angle_beta   90.00000000
_cell_angle_gamma   90.00000000
_symmetry_Int_Tables_number   1
_chemical_formula_structural   LiF
_chemical_formula_sum   'Li16 F16'
_cell_volume   300.64546290
_cell_formula_units_Z   16
loop_
 _symmetry_equiv_pos_site_id
 _symmetry_equiv_pos_as_xyz
  1  'x, y, z'
loop_
 _atom_site_type_symbol
 _atom_site_label
 _atom_site_symmetry_multiplicity
 _atom_site_fract_x
 _atom_site_fract_y
 _atom_site_fract_z
 _atom_site_occupancy
  F  F0  1  0.09091651  0.19461396  0.50000000  1
  F  F1  1  0.90908349  0.80538604  0.50000000  1
  F  F2  1  0.40908349  0.69461396  0.50000000  1
  F  F3  1  0.59091651  0.30538604  0.50000000  1
  F  F4  1  0.00000000  0.00000000  0.91531744  1
  F  F5  1  0.50000000  0.50000000  0.08468256  1
  F  F6  1  0.00000000  0.00000000  0.08468256  1
  F  F7  1  0.50000000  0.50000000  0.91531744  1
  F  F8  1  0.00000000  0.00000000  0.50000000  1
  F  F9  1  0.50000000  0.50000000  0.50000000  1
  F  F10  1  0.00000000  0.50000000  0.50000000  1
  F  F11  1  0.50000000  0.00000000  0.50000000  1
  F  F12  1  0.00000000  0.50000000  0.83644202  1
  F  F13  1  0.50000000  0.00000000  0.16355798  1
  F  F14  1  0.00000000  0.50000000  0.16355798  1
  F  F15  1  0.50000000  0.00000000  0.83644202  1
  Li  Li16  1  0.14605255  0.04119260  0.15149345  1
  Li  Li17  1  -0.14605255  -0.04119260  0.15149345  1
  Li  Li18  1  0.35394745  0.54119260  -0.15149345  1
  Li  Li19  1  0.64605255  0.45880740  -0.15149345  1
  Li  Li20  1  -0.14605255  -0.04119260  -0.15149345  1
  Li  Li21  1  0.14605255  0.04119260  -0.15149345  1
  Li  Li22  1  0.64605255  0.45880740  0.15149345  1
  Li  Li23  1  0.35394745  0.54119260  0.15149345  1
  Li  Li24  1  0.82850384  0.19024178  0.37068546  1
  Li  Li25  1  0.17149616  0.80975822  0.37068546  1
  Li  Li26  1  0.67149616  0.69024178  0.62931454  1
  Li  Li27  1  0.32850384  0.30975822  0.62931454  1
  Li  Li28  1  0.17149616  0.80975822  0.62931454  1
  Li  Li29  1  0.82850384  0.19024178  0.62931454  1
  Li  Li30  1  0.32850384  0.30975822  0.37068546  1
  Li  Li31  1  0.67149616  0.69024178  0.37068546  1
