# generated using pymatgen
data_LiF
_symmetry_space_group_name_H-M   'P 1'
_cell_length_a   3.96938518
_cell_length_b   6.72235918
_cell_length_c   8.54510535
_cell_angle_alpha   90.00000000
_cell_angle_beta   90.00000000
_cell_angle_gamma   90.00000000
_symmetry_Int_Tables_number   1
_chemical_formula_structural   LiF
_chemical_formula_sum   'Li16 F16'
_cell_volume   228.01445448
_cell_formula_units_Z   16
loop_
 _symmetry_equiv_pos_site_id
 _symmetry_equiv_pos_as_xyz
  1  'x, y, z'
loop_
 _atom_site_type_symbol
 _atom_site_label
 _atom_site_symmetry_multiplicity
 _atom_site_fract_x
 _atom_site_fract_y
 _atom_site_fract_z
 _atom_site_occupancy
  F  F0  1  0.45852051  0.45354713  0.94820176  1
  F  F1  1  -0.45852051  -0.45354713  0.94820176  1
  F  F2  1  0.04147949  0.95354713  -0.44820176  1
  F  F3  1  0.95852051  0.04645287  -0.44820176  1
  F  F4  1  -0.45852051  -0.45354713  -0.94820176  1
  F  F5  1  0.45852051  0.45354713  -0.94820176  1
  F  F6  1  0.95852051  0.04645287  1.44820176  1
  F  F7  1  0.04147949  0.95354713  1.44820176  1
  F  F8  1  0.00000000  0.50000000  -0.00000000  1
  F  F9  1  0.50000000  0.00000000  0.50000000  1
  F  F10  1  0.00000000  0.50000000  0.50000000  1
  F  F11  1  0.50000000  0.00000000  0.00000000  1
  F  F12  1  0.34369174  0.56981952  -0.00000000  1
  F  F13  1  0.65630826  0.43018048  0.00000000  1
  F  F14  1  0.15630826  0.06981952  0.50000000  1
  F  F15  1  0.84369174  0.93018048  0.50000000  1
  Li  Li16  1  0.24951698  0.86875034  0.69183139  1
  Li  Li17  1  0.75048302  0.13124966  0.69183139  1
  Li  Li18  1  0.25048302  0.36875034  0.80816861  1
  Li  Li19  1  0.74951698  0.63124966  0.80816861  1
  Li  Li20  1  0.75048302  0.13124966  0.30816861  1
  Li  Li21  1  0.24951698  0.86875034  0.30816861  1
  Li  Li22  1  0.74951698  0.63124966  0.19183139  1
  Li  Li23  1  0.25048302  0.36875034  0.19183139  1
  Li  Li24  1  0.00000000  0.00000000  0.26387612  1
  Li  Li25  1  0.50000000  0.50000000  0.23612388  1
  Li  Li26  1  0.00000000  0.00000000  0.73612388  1
  Li  Li27  1  0.50000000  0.50000000  0.76387612  1
  Li  Li28  1  0.00000000  0.00000000  0.07869335  1
  Li  Li29  1  0.50000000  0.50000000  0.42130665  1
  Li  Li30  1  0.00000000  0.00000000  0.92130665  1
  Li  Li31  1  0.50000000  0.50000000  0.57869335  1
