# generated using pymatgen
data_LiCu3P2Se
_symmetry_space_group_name_H-M   'P 1'
_cell_length_a   3.62809532
_cell_length_b   3.92846331
_cell_length_c   6.19043213
_cell_angle_alpha   97.10496720
_cell_angle_beta   103.72376493
_cell_angle_gamma   114.32685856
_symmetry_Int_Tables_number   1
_chemical_formula_structural   LiCu3P2Se
_chemical_formula_sum   'Li1 Cu3 P2 Se1'
_cell_volume   75.61918126
_cell_formula_units_Z   1
loop_
 _symmetry_equiv_pos_site_id
 _symmetry_equiv_pos_as_xyz
  1  'x, y, z'
loop_
 _atom_site_type_symbol
 _atom_site_label
 _atom_site_symmetry_multiplicity
 _atom_site_fract_x
 _atom_site_fract_y
 _atom_site_fract_z
 _atom_site_occupancy
  P  P0  1  0.12500000  0.12500000  0.12500000  1
  P  P1  1  0.50000000  0.50000000  0.50000000  1
  Se  Se2  1  0.25000000  0.25000000  0.25000000  1
  Li  Li3  1  0.75000000  0.75000000  0.75000000  1
  Cu  Cu4  1  0.69956553  0.67275704  0.08343237  1
  Cu  Cu5  1  0.46957416  0.81379333  0.12592329  1
  Cu  Cu6  1  0.45025779  0.68022392  0.56818224  1
