# generated using pymatgen
data_LiF
_symmetry_space_group_name_H-M   'P 1'
_cell_length_a   8.88175980
_cell_length_b   8.88175980
_cell_length_c   13.03028747
_cell_angle_alpha   90.00000000
_cell_angle_beta   90.00000000
_cell_angle_gamma   90.00000000
_symmetry_Int_Tables_number   1
_chemical_formula_structural   LiF
_chemical_formula_sum   'Li36 F36'
_cell_volume   1027.90279112
_cell_formula_units_Z   36
loop_
 _symmetry_equiv_pos_site_id
 _symmetry_equiv_pos_as_xyz
  1  'x, y, z'
loop_
 _atom_site_type_symbol
 _atom_site_label
 _atom_site_symmetry_multiplicity
 _atom_site_fract_x
 _atom_site_fract_y
 _atom_site_fract_z
 _atom_site_occupancy
  F  F0  1  0.30401895  0.06720861  0.10346861  1
  F  F1  1  0.19598105  -0.06720861  0.60346861  1
  F  F2  1  0.18279139  1.05401895  0.35346861  1
  F  F3  1  0.31720861  -0.05401895  0.85346861  1
  F  F4  1  0.19598105  0.06720861  0.39653139  1
  F  F5  1  0.30401895  -0.06720861  -0.10346861  1
  F  F6  1  0.31720861  1.05401895  0.14653139  1
  F  F7  1  0.18279139  -0.05401895  0.64653139  1
  F  F8  1  -0.30401895  -0.06720861  -0.10346861  1
  F  F9  1  0.80401895  0.06720861  0.39653139  1
  F  F10  1  0.81720861  -0.05401895  0.64653139  1
  F  F11  1  0.68279139  1.05401895  0.14653139  1
  F  F12  1  0.80401895  -0.06720861  0.60346861  1
  F  F13  1  -0.30401895  0.06720861  0.10346861  1
  F  F14  1  0.68279139  -0.05401895  0.85346861  1
  F  F15  1  0.81720861  1.05401895  0.35346861  1
  F  F16  1  0.80401895  0.56720861  0.60346861  1
  F  F17  1  0.69598105  0.43279139  1.10346861  1
  F  F18  1  0.68279139  1.55401895  0.85346861  1
  F  F19  1  0.81720861  0.44598105  1.35346861  1
  F  F20  1  0.69598105  0.56720861  0.89653139  1
  F  F21  1  0.80401895  0.43279139  0.39653139  1
  F  F22  1  0.81720861  1.55401895  0.64653139  1
  F  F23  1  0.68279139  0.44598105  1.14653139  1
  F  F24  1  0.19598105  0.43279139  0.39653139  1
  F  F25  1  1.30401895  0.56720861  0.89653139  1
  F  F26  1  1.31720861  0.44598105  1.14653139  1
  F  F27  1  1.18279139  1.55401895  0.64653139  1
  F  F28  1  1.30401895  0.43279139  1.10346861  1
  F  F29  1  0.19598105  0.56720861  0.60346861  1
  F  F30  1  1.18279139  0.44598105  1.35346861  1
  F  F31  1  1.31720861  1.55401895  0.85346861  1
  F  F32  1  0.00000000  0.25000000  0.37500000  1
  F  F33  1  0.00000000  0.75000000  0.62500000  1
  F  F34  1  0.50000000  0.75000000  0.87500000  1
  F  F35  1  0.50000000  0.25000000  0.12500000  1
  Li  Li36  1  0.00000000  0.89703484  0.97133929  1
  Li  Li37  1  0.50000000  0.10296516  0.47133929  1
  Li  Li38  1  0.35296516  0.75000000  0.22133929  1
  Li  Li39  1  0.14703484  0.25000000  0.72133929  1
  Li  Li40  1  0.50000000  0.89703484  0.52866071  1
  Li  Li41  1  0.00000000  0.10296516  0.02866071  1
  Li  Li42  1  0.14703484  0.75000000  0.27866071  1
  Li  Li43  1  0.35296516  0.25000000  0.77866071  1
  Li  Li44  1  0.50000000  0.39703484  0.47133929  1
  Li  Li45  1  0.00000000  0.60296516  0.97133929  1
  Li  Li46  1  0.85296516  0.25000000  0.72133929  1
  Li  Li47  1  0.64703484  0.75000000  0.22133929  1
  Li  Li48  1  0.00000000  0.39703484  0.02866071  1
  Li  Li49  1  0.50000000  0.60296516  0.52866071  1
  Li  Li50  1  0.64703484  0.25000000  0.77866071  1
  Li  Li51  1  0.85296516  0.75000000  0.27866071  1
  Li  Li52  1  0.23245556  0.48245556  0.87500000  1
  Li  Li53  1  0.26754444  0.51754444  0.37500000  1
  Li  Li54  1  0.76754444  0.98245556  0.12500000  1
  Li  Li55  1  0.73245556  0.01754444  0.62500000  1
  Li  Li56  1  0.76754444  0.51754444  0.12500000  1
  Li  Li57  1  0.73245556  0.48245556  0.62500000  1
  Li  Li58  1  0.23245556  0.01754444  0.87500000  1
  Li  Li59  1  0.26754444  0.98245556  0.37500000  1
  Li  Li60  1  0.73245556  0.98245556  0.37500000  1
  Li  Li61  1  0.76754444  0.01754444  0.87500000  1
  Li  Li62  1  0.26754444  0.48245556  0.62500000  1
  Li  Li63  1  0.23245556  0.51754444  0.12500000  1
  Li  Li64  1  0.26754444  0.01754444  0.62500000  1
  Li  Li65  1  0.23245556  0.98245556  0.12500000  1
  Li  Li66  1  0.73245556  0.51754444  0.37500000  1
  Li  Li67  1  0.76754444  0.48245556  0.87500000  1
  Li  Li68  1  0.00000000  0.75000000  0.12500000  1
  Li  Li69  1  0.50000000  0.75000000  0.37500000  1
  Li  Li70  1  0.50000000  0.25000000  0.62500000  1
  Li  Li71  1  0.00000000  0.25000000  0.87500000  1
