# generated using pymatgen
data_Li2Si4Te3F12
_symmetry_space_group_name_H-M   'P 1'
_cell_length_a   10.18027342
_cell_length_b   10.44837148
_cell_length_c   10.67087588
_cell_angle_alpha   90.00000000
_cell_angle_beta   90.00000000
_cell_angle_gamma   90.00000000
_symmetry_Int_Tables_number   1
_chemical_formula_structural   Li2Si4Te3F12
_chemical_formula_sum   'Li8 Si16 Te12 F48'
_cell_volume   1135.03202513
_cell_formula_units_Z   4
loop_
 _symmetry_equiv_pos_site_id
 _symmetry_equiv_pos_as_xyz
  1  'x, y, z'
loop_
 _atom_site_type_symbol
 _atom_site_label
 _atom_site_symmetry_multiplicity
 _atom_site_fract_x
 _atom_site_fract_y
 _atom_site_fract_z
 _atom_site_occupancy
  F  F0  1  0.87781196  0.14573513  0.23256067  1
  F  F1  1  0.12218804  0.85426487  0.23256067  1
  F  F2  1  0.62218804  0.64573513  0.26743933  1
  F  F3  1  0.37781196  0.35426487  0.26743933  1
  F  F4  1  0.12218804  0.85426487  0.76743933  1
  F  F5  1  0.87781196  0.14573513  0.76743933  1
  F  F6  1  0.37781196  0.35426487  0.73256067  1
  F  F7  1  0.62218804  0.64573513  0.73256067  1
  F  F8  1  0.00000000  0.50000000  0.50000000  1
  F  F9  1  0.50000000  0.00000000  0.00000000  1
  F  F10  1  0.15281714  0.13985745  0.67659027  1
  F  F11  1  0.84718286  0.86014255  0.67659027  1
  F  F12  1  0.34718286  0.63985745  0.82340973  1
  F  F13  1  0.65281714  0.36014255  0.82340973  1
  F  F14  1  0.84718286  0.86014255  0.32340973  1
  F  F15  1  0.15281714  0.13985745  0.32340973  1
  F  F16  1  0.65281714  0.36014255  0.17659027  1
  F  F17  1  0.34718286  0.63985745  0.17659027  1
  F  F18  1  0.50417228  0.72896085  0.39569618  1
  F  F19  1  0.49582772  0.27103915  0.39569618  1
  F  F20  1  0.99582772  0.22896085  0.10430382  1
  F  F21  1  0.00417228  0.77103915  0.10430382  1
  F  F22  1  0.49582772  0.27103915  0.60430382  1
  F  F23  1  0.50417228  0.72896085  0.60430382  1
  F  F24  1  0.00417228  0.77103915  0.89569618  1
  F  F25  1  0.99582772  0.22896085  0.89569618  1
  F  F26  1  0.84571346  0.22812509  0.08607956  1
  F  F27  1  0.15428654  0.77187491  0.08607956  1
  F  F28  1  0.65428654  0.72812509  0.41392044  1
  F  F29  1  0.34571346  0.27187491  0.41392044  1
  F  F30  1  0.15428654  0.77187491  0.91392044  1
  F  F31  1  0.84571346  0.22812509  0.91392044  1
  F  F32  1  0.34571346  0.27187491  0.58607956  1
  F  F33  1  0.65428654  0.72812509  0.58607956  1
  F  F34  1  0.62634117  0.53001614  0.00000000  1
  F  F35  1  0.37365883  0.46998386  0.00000000  1
  F  F36  1  0.87365883  0.03001614  0.50000000  1
  F  F37  1  0.12634117  0.96998386  0.50000000  1
  F  F38  1  0.00000000  0.00000000  0.00000000  1
  F  F39  1  0.50000000  0.50000000  0.50000000  1
  F  F40  1  0.00000000  0.00000000  0.37892242  1
  F  F41  1  0.50000000  0.50000000  0.12107758  1
  F  F42  1  0.00000000  0.00000000  0.62107758  1
  F  F43  1  0.50000000  0.50000000  0.87892242  1
  F  F44  1  0.94322009  0.34147501  0.00000000  1
  F  F45  1  0.05677991  0.65852499  0.00000000  1
  F  F46  1  0.55677991  0.84147501  0.50000000  1
  F  F47  1  0.44322009  0.15852499  0.50000000  1
  Li  Li48  1  0.00000000  0.00000000  0.82663418  1
  Li  Li49  1  0.50000000  0.50000000  0.67336582  1
  Li  Li50  1  0.00000000  0.00000000  0.17336582  1
  Li  Li51  1  0.50000000  0.50000000  0.32663418  1
  Li  Li52  1  0.52383650  0.32842828  0.00000000  1
  Li  Li53  1  0.47616350  0.67157172  0.00000000  1
  Li  Li54  1  0.97616350  0.82842828  0.50000000  1
  Li  Li55  1  0.02383650  0.17157172  0.50000000  1
  Si  Si56  1  0.76709320  0.45243649  0.07104930  1
  Si  Si57  1  -0.76709320  -0.45243649  0.07104930  1
  Si  Si58  1  -0.26709320  0.95243649  0.42895070  1
  Si  Si59  1  1.26709320  0.04756351  0.42895070  1
  Si  Si60  1  -0.76709320  -0.45243649  -0.07104930  1
  Si  Si61  1  0.76709320  0.45243649  -0.07104930  1
  Si  Si62  1  1.26709320  0.04756351  0.57104930  1
  Si  Si63  1  -0.26709320  0.95243649  0.57104930  1
  Si  Si64  1  0.00000000  0.00000000  0.50000000  1
  Si  Si65  1  0.50000000  0.50000000  0.00000000  1
  Si  Si66  1  0.00000000  0.50000000  0.00000000  1
  Si  Si67  1  0.50000000  0.00000000  0.50000000  1
  Si  Si68  1  0.00000000  0.50000000  0.32483003  1
  Si  Si69  1  0.50000000  0.00000000  0.17516997  1
  Si  Si70  1  0.00000000  0.50000000  0.67516997  1
  Si  Si71  1  0.50000000  0.00000000  0.82483003  1
  Te  Te72  1  0.65124793  0.09632444  -0.00000000  1
  Te  Te73  1  0.34875207  0.90367556  0.00000000  1
  Te  Te74  1  0.84875207  0.59632444  0.50000000  1
  Te  Te75  1  0.15124793  0.40367556  0.50000000  1
  Te  Te76  1  0.24684768  0.71470849  0.33631811  1
  Te  Te77  1  0.75315232  0.28529151  0.33631811  1
  Te  Te78  1  0.25315232  0.21470849  0.16368189  1
  Te  Te79  1  0.74684768  0.78529151  0.16368189  1
  Te  Te80  1  0.75315232  0.28529151  0.66368189  1
  Te  Te81  1  0.24684768  0.71470849  0.66368189  1
  Te  Te82  1  0.74684768  0.78529151  0.83631811  1
  Te  Te83  1  0.25315232  0.21470849  0.83631811  1
