# generated using pymatgen
data_LiF
_symmetry_space_group_name_H-M   'P 1'
_cell_length_a   9.05178049
_cell_length_b   7.09173497
_cell_length_c   7.71191120
_cell_angle_alpha   90.00000000
_cell_angle_beta   90.00000000
_cell_angle_gamma   90.00000000
_symmetry_Int_Tables_number   1
_chemical_formula_structural   LiF
_chemical_formula_sum   'Li16 F16'
_cell_volume   495.04939128
_cell_formula_units_Z   16
loop_
 _symmetry_equiv_pos_site_id
 _symmetry_equiv_pos_as_xyz
  1  'x, y, z'
loop_
 _atom_site_type_symbol
 _atom_site_label
 _atom_site_symmetry_multiplicity
 _atom_site_fract_x
 _atom_site_fract_y
 _atom_site_fract_z
 _atom_site_occupancy
  F  F0  1  0.25474447  0.25000000  0.72781765  1
  F  F1  1  0.24525553  0.75000000  0.22781765  1
  F  F2  1  0.74525553  0.75000000  0.27218235  1
  F  F3  1  0.75474447  0.25000000  0.77218235  1
  F  F4  1  0.00000000  0.00000000  0.00000000  1
  F  F5  1  0.50000000  0.00000000  0.50000000  1
  F  F6  1  0.00000000  0.50000000  0.00000000  1
  F  F7  1  0.50000000  0.50000000  0.50000000  1
  F  F8  1  0.41800328  0.30177381  0.15194702  1
  F  F9  1  0.08199672  0.69822619  0.65194702  1
  F  F10  1  0.58199672  0.80177381  0.84805298  1
  F  F11  1  0.91800328  0.19822619  0.34805298  1
  F  F12  1  0.58199672  0.69822619  0.84805298  1
  F  F13  1  0.91800328  0.30177381  0.34805298  1
  F  F14  1  0.41800328  0.19822619  0.15194702  1
  F  F15  1  0.08199672  0.80177381  0.65194702  1
  Li  Li16  1  0.87553674  0.25000000  0.60053599  1
  Li  Li17  1  0.62446326  0.75000000  0.10053599  1
  Li  Li18  1  0.12446326  0.75000000  0.39946401  1
  Li  Li19  1  0.37553674  0.25000000  0.89946401  1
  Li  Li20  1  0.22088294  0.97814009  0.04820405  1
  Li  Li21  1  0.27911706  -0.97814009  0.54820405  1
  Li  Li22  1  -0.22088294  1.47814009  -0.04820405  1
  Li  Li23  1  0.72088294  -0.47814009  0.45179595  1
  Li  Li24  1  -0.22088294  -0.97814009  -0.04820405  1
  Li  Li25  1  0.72088294  0.97814009  0.45179595  1
  Li  Li26  1  0.22088294  -0.47814009  0.04820405  1
  Li  Li27  1  0.27911706  1.47814009  0.54820405  1
  Li  Li28  1  0.00000000  0.00000000  0.50000000  1
  Li  Li29  1  0.50000000  0.00000000  0.00000000  1
  Li  Li30  1  0.00000000  0.50000000  0.50000000  1
  Li  Li31  1  0.50000000  0.50000000  0.00000000  1
