# generated using pymatgen
data_LiF
_symmetry_space_group_name_H-M   'P 1'
_cell_length_a   10.22441085
_cell_length_b   7.15196701
_cell_length_c   8.64431694
_cell_angle_alpha   90.00000000
_cell_angle_beta   90.00000000
_cell_angle_gamma   90.00000000
_symmetry_Int_Tables_number   1
_chemical_formula_structural   LiF
_chemical_formula_sum   'Li24 F24'
_cell_volume   632.11264324
_cell_formula_units_Z   24
loop_
 _symmetry_equiv_pos_site_id
 _symmetry_equiv_pos_as_xyz
  1  'x, y, z'
loop_
 _atom_site_type_symbol
 _atom_site_label
 _atom_site_symmetry_multiplicity
 _atom_site_fract_x
 _atom_site_fract_y
 _atom_site_fract_z
 _atom_site_occupancy
  F  F0  1  0.00000000  0.00000000  0.00000000  1
  F  F1  1  0.50000000  0.00000000  0.50000000  1
  F  F2  1  0.00000000  0.50000000  0.00000000  1
  F  F3  1  0.50000000  0.50000000  0.50000000  1
  F  F4  1  0.48355903  0.25000000  0.60480469  1
  F  F5  1  0.01644097  0.75000000  0.10480469  1
  F  F6  1  0.51644097  0.75000000  0.39519531  1
  F  F7  1  0.98355903  0.25000000  0.89519531  1
  F  F8  1  0.68044322  0.33321510  0.85014960  1
  F  F9  1  0.81955678  0.66678490  0.35014960  1
  F  F10  1  0.31955678  0.83321510  0.14985040  1
  F  F11  1  0.18044322  0.16678490  0.64985040  1
  F  F12  1  0.31955678  0.66678490  0.14985040  1
  F  F13  1  0.18044322  0.33321510  0.64985040  1
  F  F14  1  0.68044322  0.16678490  0.85014960  1
  F  F15  1  0.81955678  0.83321510  0.35014960  1
  F  F16  1  0.89449037  0.41358691  0.09372214  1
  F  F17  1  0.60550963  0.58641309  0.59372214  1
  F  F18  1  0.10550963  0.91358691  0.90627786  1
  F  F19  1  0.39449037  0.08641309  0.40627786  1
  F  F20  1  0.10550963  0.58641309  0.90627786  1
  F  F21  1  0.39449037  0.41358691  0.40627786  1
  F  F22  1  0.89449037  0.08641309  0.09372214  1
  F  F23  1  0.60550963  0.91358691  0.59372214  1
  Li  Li24  1  0.13805914  0.53251111  0.14146092  1
  Li  Li25  1  0.36194086  -0.53251111  0.64146092  1
  Li  Li26  1  -0.13805914  1.03251111  -0.14146092  1
  Li  Li27  1  0.63805914  -0.03251111  0.35853908  1
  Li  Li28  1  -0.13805914  -0.53251111  -0.14146092  1
  Li  Li29  1  0.63805914  0.53251111  0.35853908  1
  Li  Li30  1  0.13805914  -0.03251111  0.14146092  1
  Li  Li31  1  0.36194086  1.03251111  0.64146092  1
  Li  Li32  1  0.58950203  0.25000000  0.26571441  1
  Li  Li33  1  0.91049797  0.75000000  0.76571441  1
  Li  Li34  1  0.41049797  0.75000000  0.73428559  1
  Li  Li35  1  0.08950203  0.25000000  0.23428559  1
  Li  Li36  1  0.95807283  0.42780154  0.21630785  1
  Li  Li37  1  0.54192717  0.57219846  0.71630785  1
  Li  Li38  1  0.04192717  0.92780154  0.78369215  1
  Li  Li39  1  0.45807283  0.07219846  0.28369215  1
  Li  Li40  1  0.04192717  0.57219846  0.78369215  1
  Li  Li41  1  0.45807283  0.42780154  0.28369215  1
  Li  Li42  1  0.95807283  0.07219846  0.21630785  1
  Li  Li43  1  0.54192717  0.92780154  0.71630785  1
  Li  Li44  1  0.00000000  0.00000000  0.50000000  1
  Li  Li45  1  0.50000000  0.00000000  0.00000000  1
  Li  Li46  1  0.00000000  0.50000000  0.50000000  1
  Li  Li47  1  0.50000000  0.50000000  0.00000000  1
