# generated using pymatgen
data_LiF
_symmetry_space_group_name_H-M   'P 1'
_cell_length_a   18.52941447
_cell_length_b   18.52941447
_cell_length_c   7.18674872
_cell_angle_alpha   90.00000000
_cell_angle_beta   90.00000000
_cell_angle_gamma   120.00000000
_symmetry_Int_Tables_number   1
_chemical_formula_structural   LiF
_chemical_formula_sum   'Li72 F72'
_cell_volume   2136.91124105
_cell_formula_units_Z   72
loop_
 _symmetry_equiv_pos_site_id
 _symmetry_equiv_pos_as_xyz
  1  'x, y, z'
loop_
 _atom_site_type_symbol
 _atom_site_label
 _atom_site_symmetry_multiplicity
 _atom_site_fract_x
 _atom_site_fract_y
 _atom_site_fract_z
 _atom_site_occupancy
  F  F0  1  0.55094583  0.66767392  0.59430183  1
  F  F1  1  0.33232608  0.88327191  0.59430183  1
  F  F2  1  0.11672809  0.44905417  0.59430183  1
  F  F3  1  0.66767392  0.55094583  0.90569817  1
  F  F4  1  0.88327191  0.33232608  0.90569817  1
  F  F5  1  0.44905417  0.11672809  0.90569817  1
  F  F6  1  0.44905417  0.33232608  0.40569817  1
  F  F7  1  0.66767392  0.11672809  0.40569817  1
  F  F8  1  0.88327191  0.55094583  0.40569817  1
  F  F9  1  0.33232608  0.44905417  0.09430183  1
  F  F10  1  0.11672809  0.66767392  0.09430183  1
  F  F11  1  0.55094583  0.88327191  0.09430183  1
  F  F12  1  0.21761249  0.00100725  0.92763516  1
  F  F13  1  0.99899275  0.21660524  0.92763516  1
  F  F14  1  0.78339476  0.78238751  0.92763516  1
  F  F15  1  0.33434058  0.88427916  0.23903150  1
  F  F16  1  0.54993858  0.66565942  0.23903150  1
  F  F17  1  0.11572084  0.45006142  0.23903150  1
  F  F18  1  0.11572084  0.66565942  0.73903150  1
  F  F19  1  0.33434058  0.45006142  0.73903150  1
  F  F20  1  0.54993858  0.88427916  0.73903150  1
  F  F21  1  0.99899275  0.78238751  0.42763516  1
  F  F22  1  0.78339476  0.00100725  0.42763516  1
  F  F23  1  0.21761249  0.21660524  0.42763516  1
  F  F24  1  0.88427916  0.33434058  0.26096850  1
  F  F25  1  0.66565942  0.54993858  0.26096850  1
  F  F26  1  0.45006142  0.11572084  0.26096850  1
  F  F27  1  0.00100725  0.21761249  0.57236484  1
  F  F28  1  0.21660524  0.99899275  0.57236484  1
  F  F29  1  0.78238751  0.78339476  0.57236484  1
  F  F30  1  0.78238751  0.99899275  0.07236484  1
  F  F31  1  0.00100725  0.78339476  0.07236484  1
  F  F32  1  0.21660524  0.21761249  0.07236484  1
  F  F33  1  0.66565942  0.11572084  0.76096850  1
  F  F34  1  0.45006142  0.33434058  0.76096850  1
  F  F35  1  0.88427916  0.54993858  0.76096850  1
  F  F36  1  0.76946666  0.12541792  0.27500466  1
  F  F37  1  0.87458208  0.64404874  0.27500466  1
  F  F38  1  0.35595126  0.23053334  0.27500466  1
  F  F39  1  0.12541792  0.76946666  0.22499534  1
  F  F40  1  0.64404874  0.87458208  0.22499534  1
  F  F41  1  0.23053334  0.35595126  0.22499534  1
  F  F42  1  0.23053334  0.87458208  0.72499534  1
  F  F43  1  0.12541792  0.35595126  0.72499534  1
  F  F44  1  0.64404874  0.76946666  0.72499534  1
  F  F45  1  0.87458208  0.23053334  0.77500466  1
  F  F46  1  0.35595126  0.12541792  0.77500466  1
  F  F47  1  0.76946666  0.64404874  0.77500466  1
  F  F48  1  0.43613333  0.45875126  0.60833799  1
  F  F49  1  0.54124874  0.97738207  0.60833799  1
  F  F50  1  0.02261793  0.56386667  0.60833799  1
  F  F51  1  0.79208459  0.10280000  0.55832868  1
  F  F52  1  0.31071541  0.20791541  0.55832868  1
  F  F53  1  0.89720000  0.68928459  0.55832868  1
  F  F54  1  0.89720000  0.20791541  0.05832868  1
  F  F55  1  0.79208459  0.68928459  0.05832868  1
  F  F56  1  0.31071541  0.10280000  0.05832868  1
  F  F57  1  0.54124874  0.56386667  0.10833799  1
  F  F58  1  0.02261793  0.45875126  0.10833799  1
  F  F59  1  0.43613333  0.97738207  0.10833799  1
  F  F60  1  0.10280000  0.79208459  0.94167132  1
  F  F61  1  0.20791541  0.31071541  0.94167132  1
  F  F62  1  0.68928459  0.89720000  0.94167132  1
  F  F63  1  0.45875126  0.43613333  0.89166201  1
  F  F64  1  0.97738207  0.54124874  0.89166201  1
  F  F65  1  0.56386667  0.02261793  0.89166201  1
  F  F66  1  0.56386667  0.54124874  0.39166201  1
  F  F67  1  0.45875126  0.02261793  0.39166201  1
  F  F68  1  0.97738207  0.43613333  0.39166201  1
  F  F69  1  0.20791541  0.89720000  0.44167132  1
  F  F70  1  0.68928459  0.79208459  0.44167132  1
  F  F71  1  0.10280000  0.31071541  0.44167132  1
  Li  Li72  1  0.08878091  0.75651732  0.44363964  1
  Li  Li73  1  -0.75651732  -0.66773641  0.44363964  1
  Li  Li74  1  0.66773641  -0.08878091  0.44363964  1
  Li  Li75  1  0.75651732  0.08878091  0.05636036  1
  Li  Li76  1  -0.66773641  -0.75651732  0.05636036  1
  Li  Li77  1  -0.08878091  0.66773641  0.05636036  1
  Li  Li78  1  -0.08878091  -0.75651732  -0.44363964  1
  Li  Li79  1  0.75651732  0.66773641  -0.44363964  1
  Li  Li80  1  -0.66773641  0.08878091  -0.44363964  1
  Li  Li81  1  -0.75651732  -0.08878091  0.94363964  1
  Li  Li82  1  0.66773641  0.75651732  0.94363964  1
  Li  Li83  1  0.08878091  -0.66773641  0.94363964  1
  Li  Li84  1  0.75544758  1.08985066  0.77697297  1
  Li  Li85  1  -0.08985066  -0.33440307  0.77697297  1
  Li  Li86  1  1.33440307  0.24455242  0.77697297  1
  Li  Li87  1  1.42318399  0.42211425  0.38969370  1
  Li  Li88  1  -0.00106974  -0.42318399  0.38969370  1
  Li  Li89  1  0.57788575  1.00106974  0.38969370  1
  Li  Li90  1  0.57788575  -0.42318399  -0.11030630  1
  Li  Li91  1  1.42318399  1.00106974  -0.11030630  1
  Li  Li92  1  -0.00106974  0.42211425  -0.11030630  1
  Li  Li93  1  -0.08985066  0.24455242  1.27697297  1
  Li  Li94  1  1.33440307  1.08985066  1.27697297  1
  Li  Li95  1  0.75544758  -0.33440307  1.27697297  1
  Li  Li96  1  0.42211425  1.42318399  1.11030630  1
  Li  Li97  1  -0.42318399  -0.00106974  1.11030630  1
  Li  Li98  1  1.00106974  0.57788575  1.11030630  1
  Li  Li99  1  1.08985066  0.75544758  0.72302703  1
  Li  Li100  1  -0.33440307  -0.08985066  0.72302703  1
  Li  Li101  1  0.24455242  1.33440307  0.72302703  1
  Li  Li102  1  0.24455242  -0.08985066  0.22302703  1
  Li  Li103  1  1.08985066  1.33440307  0.22302703  1
  Li  Li104  1  -0.33440307  0.75544758  0.22302703  1
  Li  Li105  1  -0.42318399  0.57788575  1.61030630  1
  Li  Li106  1  1.00106974  1.42318399  1.61030630  1
  Li  Li107  1  0.42211425  -0.00106974  1.61030630  1
  Li  Li108  1  0.89717215  0.90832898  0.54214776  1
  Li  Li109  1  0.09167102  0.98884318  0.54214776  1
  Li  Li110  1  0.01115682  0.10282785  0.54214776  1
  Li  Li111  1  0.90832898  0.89717215  0.95785224  1
  Li  Li112  1  0.98884318  0.09167102  0.95785224  1
  Li  Li113  1  0.10282785  0.01115682  0.95785224  1
  Li  Li114  1  0.10282785  0.09167102  0.45785224  1
  Li  Li115  1  0.90832898  0.01115682  0.45785224  1
  Li  Li116  1  0.98884318  0.89717215  0.45785224  1
  Li  Li117  1  0.09167102  0.10282785  0.04214776  1
  Li  Li118  1  0.01115682  0.90832898  0.04214776  1
  Li  Li119  1  0.89717215  0.98884318  0.04214776  1
  Li  Li120  1  0.56383882  0.24166231  0.87548110  1
  Li  Li121  1  0.75833769  0.32217651  0.87548110  1
  Li  Li122  1  0.67782349  0.43616118  0.87548110  1
  Li  Li123  1  0.57499564  0.23050548  0.29118557  1
  Li  Li124  1  0.65550984  0.42500436  0.29118557  1
  Li  Li125  1  0.76949452  0.34449016  0.29118557  1
  Li  Li126  1  0.76949452  0.42500436  0.79118557  1
  Li  Li127  1  0.57499564  0.34449016  0.79118557  1
  Li  Li128  1  0.65550984  0.23050548  0.79118557  1
  Li  Li129  1  0.75833769  0.43616118  0.37548110  1
  Li  Li130  1  0.67782349  0.24166231  0.37548110  1
  Li  Li131  1  0.56383882  0.32217651  0.37548110  1
  Li  Li132  1  0.23050548  0.57499564  0.20881443  1
  Li  Li133  1  0.42500436  0.65550984  0.20881443  1
  Li  Li134  1  0.34449016  0.76949452  0.20881443  1
  Li  Li135  1  0.24166231  0.56383882  0.62451890  1
  Li  Li136  1  0.32217651  0.75833769  0.62451890  1
  Li  Li137  1  0.43616118  0.67782349  0.62451890  1
  Li  Li138  1  0.43616118  0.75833769  0.12451890  1
  Li  Li139  1  0.24166231  0.67782349  0.12451890  1
  Li  Li140  1  0.32217651  0.56383882  0.12451890  1
  Li  Li141  1  0.42500436  0.76949452  0.70881443  1
  Li  Li142  1  0.34449016  0.57499564  0.70881443  1
  Li  Li143  1  0.23050548  0.65550984  0.70881443  1
