# generated using pymatgen
data_LiF
_symmetry_space_group_name_H-M   'P 1'
_cell_length_a   10.73715835
_cell_length_b   10.73715835
_cell_length_c   9.81683994
_cell_angle_alpha   90.00000000
_cell_angle_beta   90.00000000
_cell_angle_gamma   90.00000000
_symmetry_Int_Tables_number   1
_chemical_formula_structural   LiF
_chemical_formula_sum   'Li33 F33'
_cell_volume   1131.74979892
_cell_formula_units_Z   33
loop_
 _symmetry_equiv_pos_site_id
 _symmetry_equiv_pos_as_xyz
  1  'x, y, z'
loop_
 _atom_site_type_symbol
 _atom_site_label
 _atom_site_symmetry_multiplicity
 _atom_site_fract_x
 _atom_site_fract_y
 _atom_site_fract_z
 _atom_site_occupancy
  F  F0  1  0.09699578  0.09699578  0.23457222  1
  F  F1  1  0.90300422  0.90300422  0.23457222  1
  F  F2  1  0.90300422  0.09699578  0.23457222  1
  F  F3  1  0.09699578  0.90300422  0.23457222  1
  F  F4  1  0.90300422  0.09699578  0.76542778  1
  F  F5  1  0.09699578  0.90300422  0.76542778  1
  F  F6  1  0.09699578  0.09699578  0.76542778  1
  F  F7  1  0.90300422  0.90300422  0.76542778  1
  F  F8  1  0.88982227  0.80259556  0.36453580  1
  F  F9  1  -0.88982227  -0.80259556  0.36453580  1
  F  F10  1  -0.80259556  0.88982227  0.36453580  1
  F  F11  1  0.80259556  -0.88982227  0.36453580  1
  F  F12  1  -0.88982227  0.80259556  -0.36453580  1
  F  F13  1  0.88982227  -0.80259556  -0.36453580  1
  F  F14  1  0.80259556  0.88982227  -0.36453580  1
  F  F15  1  -0.80259556  -0.88982227  -0.36453580  1
  F  F16  1  -0.88982227  -0.80259556  -0.36453580  1
  F  F17  1  0.88982227  0.80259556  -0.36453580  1
  F  F18  1  0.80259556  -0.88982227  -0.36453580  1
  F  F19  1  -0.80259556  0.88982227  -0.36453580  1
  F  F20  1  0.88982227  -0.80259556  0.36453580  1
  F  F21  1  -0.88982227  0.80259556  0.36453580  1
  F  F22  1  -0.80259556  -0.88982227  0.36453580  1
  F  F23  1  0.80259556  0.88982227  0.36453580  1
  F  F24  1  0.60482773  0.34685727  0.50000000  1
  F  F25  1  0.39517227  0.65314273  0.50000000  1
  F  F26  1  0.65314273  0.60482773  0.50000000  1
  F  F27  1  0.34685727  0.39517227  0.50000000  1
  F  F28  1  0.39517227  0.34685727  0.50000000  1
  F  F29  1  0.60482773  0.65314273  0.50000000  1
  F  F30  1  0.34685727  0.60482773  0.50000000  1
  F  F31  1  0.65314273  0.39517227  0.50000000  1
  F  F32  1  0.00000000  0.00000000  0.50000000  1
  Li  Li33  1  0.50000000  0.50000000  0.34101729  1
  Li  Li34  1  0.50000000  0.50000000  0.65898271  1
  Li  Li35  1  0.50000000  0.50000000  0.00000000  1
  Li  Li36  1  0.76089672  -0.00000000  0.16065024  1
  Li  Li37  1  0.23910328  0.00000000  0.16065024  1
  Li  Li38  1  0.00000000  0.76089672  0.16065024  1
  Li  Li39  1  0.00000000  0.23910328  0.16065024  1
  Li  Li40  1  0.23910328  0.00000000  0.83934976  1
  Li  Li41  1  0.76089672  -0.00000000  0.83934976  1
  Li  Li42  1  0.00000000  0.76089672  0.83934976  1
  Li  Li43  1  0.00000000  0.23910328  0.83934976  1
  Li  Li44  1  0.68168897  0.00000000  0.00000000  1
  Li  Li45  1  0.31831103  0.00000000  0.00000000  1
  Li  Li46  1  0.00000000  0.68168897  0.00000000  1
  Li  Li47  1  0.00000000  0.31831103  0.00000000  1
  Li  Li48  1  0.82975336  0.82975336  0.20998359  1
  Li  Li49  1  0.17024664  0.17024664  0.20998359  1
  Li  Li50  1  0.17024664  0.82975336  0.20998359  1
  Li  Li51  1  0.82975336  0.17024664  0.20998359  1
  Li  Li52  1  0.17024664  0.82975336  0.79001641  1
  Li  Li53  1  0.82975336  0.17024664  0.79001641  1
  Li  Li54  1  0.82975336  0.82975336  0.79001641  1
  Li  Li55  1  0.17024664  0.17024664  0.79001641  1
  Li  Li56  1  0.70510822  0.38970708  0.00000000  1
  Li  Li57  1  0.29489178  0.61029292  0.00000000  1
  Li  Li58  1  0.61029292  0.70510822  0.00000000  1
  Li  Li59  1  0.38970708  0.29489178  0.00000000  1
  Li  Li60  1  0.29489178  0.38970708  0.00000000  1
  Li  Li61  1  0.70510822  0.61029292  0.00000000  1
  Li  Li62  1  0.38970708  0.70510822  0.00000000  1
  Li  Li63  1  0.61029292  0.29489178  0.00000000  1
  Li  Li64  1  0.00000000  0.50000000  0.50000000  1
  Li  Li65  1  0.50000000  0.00000000  0.50000000  1
