# generated using pymatgen
data_LiF
_symmetry_space_group_name_H-M   'P 1'
_cell_length_a   12.64567399
_cell_length_b   6.53246714
_cell_length_c   9.55190181
_cell_angle_alpha   90.00000000
_cell_angle_beta   90.00000000
_cell_angle_gamma   90.00000000
_symmetry_Int_Tables_number   1
_chemical_formula_structural   LiF
_chemical_formula_sum   'Li24 F24'
_cell_volume   789.05825016
_cell_formula_units_Z   24
loop_
 _symmetry_equiv_pos_site_id
 _symmetry_equiv_pos_as_xyz
  1  'x, y, z'
loop_
 _atom_site_type_symbol
 _atom_site_label
 _atom_site_symmetry_multiplicity
 _atom_site_fract_x
 _atom_site_fract_y
 _atom_site_fract_z
 _atom_site_occupancy
  F  F0  1  0.06761026  0.07661474  0.11954786  1
  F  F1  1  0.43238974  0.92338526  0.61954786  1
  F  F2  1  0.93238974  0.57661474  0.88045214  1
  F  F3  1  0.56761026  0.42338526  0.38045214  1
  F  F4  1  0.93238974  0.92338526  0.88045214  1
  F  F5  1  0.56761026  0.07661474  0.38045214  1
  F  F6  1  0.06761026  0.42338526  0.11954786  1
  F  F7  1  0.43238974  0.57661474  0.61954786  1
  F  F8  1  0.99544486  0.93241209  0.67347262  1
  F  F9  1  0.50455514  0.06758791  0.17347262  1
  F  F10  1  0.00455514  0.43241209  0.32652738  1
  F  F11  1  0.49544486  0.56758791  0.82652738  1
  F  F12  1  0.00455514  0.06758791  0.32652738  1
  F  F13  1  0.49544486  0.93241209  0.82652738  1
  F  F14  1  0.99544486  0.56758791  0.67347262  1
  F  F15  1  0.50455514  0.43241209  0.17347262  1
  F  F16  1  0.51567871  0.40562395  0.44520038  1
  F  F17  1  0.98432129  0.59437605  0.94520038  1
  F  F18  1  0.48432129  0.90562395  0.55479962  1
  F  F19  1  0.01567871  0.09437605  0.05479962  1
  F  F20  1  0.48432129  0.59437605  0.55479962  1
  F  F21  1  0.01567871  0.40562395  0.05479962  1
  F  F22  1  0.51567871  0.09437605  0.44520038  1
  F  F23  1  0.98432129  0.90562395  0.94520038  1
  Li  Li24  1  0.06867243  0.85389995  0.81347711  1
  Li  Li25  1  0.43132757  -0.85389995  1.31347711  1
  Li  Li26  1  -0.06867243  1.35389995  -0.81347711  1
  Li  Li27  1  0.56867243  -0.35389995  -0.31347711  1
  Li  Li28  1  -0.06867243  -0.85389995  -0.81347711  1
  Li  Li29  1  0.56867243  0.85389995  -0.31347711  1
  Li  Li30  1  0.06867243  -0.35389995  0.81347711  1
  Li  Li31  1  0.43132757  1.35389995  1.31347711  1
  Li  Li32  1  0.76608435  0.25000000  0.03921590  1
  Li  Li33  1  0.73391565  0.75000000  0.53921590  1
  Li  Li34  1  0.23391565  0.75000000  0.96078410  1
  Li  Li35  1  0.26608435  0.25000000  0.46078410  1
  Li  Li36  1  0.00000000  0.00000000  0.50000000  1
  Li  Li37  1  0.50000000  0.00000000  0.00000000  1
  Li  Li38  1  0.00000000  0.50000000  0.50000000  1
  Li  Li39  1  0.50000000  0.50000000  0.00000000  1
  Li  Li40  1  0.56023339  0.25000000  0.29118568  1
  Li  Li41  1  0.93976661  0.75000000  0.79118568  1
  Li  Li42  1  0.43976661  0.75000000  0.70881432  1
  Li  Li43  1  0.06023339  0.25000000  0.20881432  1
  Li  Li44  1  0.19465267  0.25000000  0.20480820  1
  Li  Li45  1  0.30534733  0.75000000  0.70480820  1
  Li  Li46  1  0.80534733  0.75000000  0.79519180  1
  Li  Li47  1  0.69465267  0.25000000  0.29519180  1
