# generated using pymatgen
data_Li2Y2Cu3P2Se
_symmetry_space_group_name_H-M   'P 1'
_cell_length_a   4.82055164
_cell_length_b   5.16948301
_cell_length_c   6.53963562
_cell_angle_alpha   94.81970447
_cell_angle_beta   98.28845114
_cell_angle_gamma   104.56724753
_symmetry_Int_Tables_number   1
_chemical_formula_structural   Li2Y2Cu3P2Se
_chemical_formula_sum   'Li2 Y2 Cu3 P2 Se1'
_cell_volume   154.84410451
_cell_formula_units_Z   1
loop_
 _symmetry_equiv_pos_site_id
 _symmetry_equiv_pos_as_xyz
  1  'x, y, z'
loop_
 _atom_site_type_symbol
 _atom_site_label
 _atom_site_symmetry_multiplicity
 _atom_site_fract_x
 _atom_site_fract_y
 _atom_site_fract_z
 _atom_site_occupancy
  Se  Se0  1  0.00000000  0.00000000  0.00000000  1
  Cu  Cu1  1  0.50000000  0.50000000  0.50000000  1
  Cu  Cu2  1  0.50000000  0.50000000  0.00000000  1
  Cu  Cu3  1  0.50000000  0.00000000  0.50000000  1
  Y  Y4  1  0.00000000  0.50000000  0.50000000  1
  Y  Y5  1  0.85461316  0.03699306  0.69461057  1
  P  P6  1  0.51372195  0.14940395  0.72090936  1
  P  P7  1  0.34456877  0.02061244  0.30458019  1
  Li  Li8  1  0.19086115  0.82452706  0.35591189  1
  Li  Li9  1  0.88902361  0.96915529  0.45305944  1
