# generated using pymatgen
data_LiF
_symmetry_space_group_name_H-M   'P 1'
_cell_length_a   10.20177469
_cell_length_b   10.20177469
_cell_length_c   14.08818115
_cell_angle_alpha   90.00000000
_cell_angle_beta   90.00000000
_cell_angle_gamma   120.00000000
_symmetry_Int_Tables_number   1
_chemical_formula_structural   LiF
_chemical_formula_sum   'Li45 F45'
_cell_volume   1269.80494657
_cell_formula_units_Z   45
loop_
 _symmetry_equiv_pos_site_id
 _symmetry_equiv_pos_as_xyz
  1  'x, y, z'
loop_
 _atom_site_type_symbol
 _atom_site_label
 _atom_site_symmetry_multiplicity
 _atom_site_fract_x
 _atom_site_fract_y
 _atom_site_fract_z
 _atom_site_occupancy
  F  F0  1  0.14319020  0.66181948  0.65606406  1
  F  F1  1  0.33818052  0.48137073  0.65606406  1
  F  F2  1  0.51862927  0.85680980  0.65606406  1
  F  F3  1  0.33818052  0.85680980  0.34393594  1
  F  F4  1  0.51862927  0.66181948  0.34393594  1
  F  F5  1  0.14319020  0.48137073  0.34393594  1
  F  F6  1  0.20002475  0.09205723  0.25571768  1
  F  F7  1  0.90794277  0.10796752  0.25571768  1
  F  F8  1  0.89203248  0.79997525  0.25571768  1
  F  F9  1  0.90794277  0.79997525  0.74428232  1
  F  F10  1  0.89203248  0.09205723  0.74428232  1
  F  F11  1  0.20002475  0.10796752  0.74428232  1
  F  F12  1  0.57900419  0.02827894  0.35359186  1
  F  F13  1  0.97172106  0.55072524  0.35359186  1
  F  F14  1  0.44927476  0.42099581  0.35359186  1
  F  F15  1  0.97172106  0.42099581  0.64640814  1
  F  F16  1  0.44927476  0.02827894  0.64640814  1
  F  F17  1  0.57900419  0.55072524  0.64640814  1
  F  F18  1  0.00000000  0.00000000  0.50000000  1
  F  F19  1  0.16204844  0.41739160  0.78802251  1
  F  F20  1  0.58260840  0.74465684  0.78802251  1
  F  F21  1  0.25534316  0.83795156  0.78802251  1
  F  F22  1  0.58260840  0.83795156  0.21197749  1
  F  F23  1  0.25534316  0.41739160  0.21197749  1
  F  F24  1  0.16204844  0.74465684  0.21197749  1
  F  F25  1  0.82864255  0.75651900  0.33718605  1
  F  F26  1  0.24348100  0.07212355  0.33718605  1
  F  F27  1  0.92787645  0.17135745  0.33718605  1
  F  F28  1  0.24348100  0.17135745  0.66281395  1
  F  F29  1  0.92787645  0.75651900  0.66281395  1
  F  F30  1  0.82864255  0.07212355  0.66281395  1
  F  F31  1  0.76531854  0.56578440  0.61911721  1
  F  F32  1  0.43421560  0.19953414  0.61911721  1
  F  F33  1  0.80046586  0.23468146  0.61911721  1
  F  F34  1  0.43421560  0.23468146  0.38088279  1
  F  F35  1  0.80046586  0.56578440  0.38088279  1
  F  F36  1  0.76531854  0.19953414  0.38088279  1
  F  F37  1  0.33333333  0.66666667  0.50000000  1
  F  F38  1  0.66666667  0.33333333  0.02418931  1
  F  F39  1  0.66666667  0.33333333  0.97581069  1
  F  F40  1  0.18413830  0.81586170  0.50000000  1
  F  F41  1  0.18413830  0.36827660  0.50000000  1
  F  F42  1  0.63172340  0.81586170  0.50000000  1
  F  F43  1  0.33333333  0.66666667  0.90893027  1
  F  F44  1  0.33333333  0.66666667  0.09106973  1
  Li  Li45  1  0.56896146  0.43103854  0.00000000  1
  Li  Li46  1  0.56896146  0.13792292  0.00000000  1
  Li  Li47  1  0.86207708  0.43103854  0.00000000  1
  Li  Li48  1  0.75352886  0.21171171  0.30105013  1
  Li  Li49  1  -0.21171171  0.54181715  0.30105013  1
  Li  Li50  1  -0.54181715  -0.75352886  0.30105013  1
  Li  Li51  1  -0.21171171  -0.75352886  -0.30105013  1
  Li  Li52  1  -0.54181715  0.21171171  -0.30105013  1
  Li  Li53  1  0.75352886  0.54181715  -0.30105013  1
  Li  Li54  1  0.43510677  0.42596333  0.46973306  1
  Li  Li55  1  0.57403667  0.00914343  0.46973306  1
  Li  Li56  1  0.99085657  0.56489323  0.46973306  1
  Li  Li57  1  0.57403667  0.56489323  0.53026694  1
  Li  Li58  1  0.99085657  0.42596333  0.53026694  1
  Li  Li59  1  0.43510677  0.00914343  0.53026694  1
  Li  Li60  1  0.00000000  0.00000000  0.00000000  1
  Li  Li61  1  0.41230700  0.56702976  0.69011651  1
  Li  Li62  1  0.43297024  0.84527724  0.69011651  1
  Li  Li63  1  0.15472276  0.58769300  0.69011651  1
  Li  Li64  1  0.43297024  0.58769300  0.30988349  1
  Li  Li65  1  0.15472276  0.56702976  0.30988349  1
  Li  Li66  1  0.41230700  0.84527724  0.30988349  1
  Li  Li67  1  0.28038407  0.71961593  0.50000000  1
  Li  Li68  1  0.28038407  0.56076813  0.50000000  1
  Li  Li69  1  0.43923187  0.71961593  0.50000000  1
  Li  Li70  1  0.66666667  0.33333333  0.50000000  1
  Li  Li71  1  0.08169601  0.74681946  0.10742422  1
  Li  Li72  1  0.25318054  0.33487654  0.10742422  1
  Li  Li73  1  0.66512346  0.91830399  0.10742422  1
  Li  Li74  1  0.25318054  0.91830399  0.89257578  1
  Li  Li75  1  0.66512346  0.74681946  0.89257578  1
  Li  Li76  1  0.08169601  0.33487654  0.89257578  1
  Li  Li77  1  0.71445723  0.54335583  0.46612911  1
  Li  Li78  1  0.45664417  0.17110140  0.46612911  1
  Li  Li79  1  0.82889860  0.28554277  0.46612911  1
  Li  Li80  1  0.45664417  0.28554277  0.53387089  1
  Li  Li81  1  0.82889860  0.54335583  0.53387089  1
  Li  Li82  1  0.71445723  0.17110140  0.53387089  1
  Li  Li83  1  0.08009128  0.16662629  0.23380741  1
  Li  Li84  1  0.83337371  0.91346499  0.23380741  1
  Li  Li85  1  0.08653501  0.91990872  0.23380741  1
  Li  Li86  1  0.83337371  0.91990872  0.76619259  1
  Li  Li87  1  0.08653501  0.16662629  0.76619259  1
  Li  Li88  1  0.08009128  0.91346499  0.76619259  1
  Li  Li89  1  0.33333333  0.66666667  0.00000000  1
