# generated using pymatgen
data_LiF
_symmetry_space_group_name_H-M   'P 1'
_cell_length_a   8.81868732
_cell_length_b   9.31503702
_cell_length_c   8.16777145
_cell_angle_alpha   90.00000000
_cell_angle_beta   90.00000000
_cell_angle_gamma   90.00000000
_symmetry_Int_Tables_number   1
_chemical_formula_structural   LiF
_chemical_formula_sum   'Li24 F24'
_cell_volume   670.95301108
_cell_formula_units_Z   24
loop_
 _symmetry_equiv_pos_site_id
 _symmetry_equiv_pos_as_xyz
  1  'x, y, z'
loop_
 _atom_site_type_symbol
 _atom_site_label
 _atom_site_symmetry_multiplicity
 _atom_site_fract_x
 _atom_site_fract_y
 _atom_site_fract_z
 _atom_site_occupancy
  F  F0  1  0.40765978  0.58298625  0.04525301  1
  F  F1  1  0.09234022  0.41701375  0.54525301  1
  F  F2  1  0.59234022  0.08298625  0.95474699  1
  F  F3  1  0.90765978  0.91701375  0.45474699  1
  F  F4  1  0.59234022  0.41701375  0.95474699  1
  F  F5  1  0.90765978  0.58298625  0.45474699  1
  F  F6  1  0.40765978  0.91701375  0.04525301  1
  F  F7  1  0.09234022  0.08298625  0.54525301  1
  F  F8  1  0.23603560  0.25000000  0.15754414  1
  F  F9  1  0.26396440  0.75000000  0.65754414  1
  F  F10  1  0.76396440  0.75000000  0.84245586  1
  F  F11  1  0.73603560  0.25000000  0.34245586  1
  F  F12  1  0.68405867  0.37873699  0.67358418  1
  F  F13  1  0.81594133  0.62126301  0.17358418  1
  F  F14  1  0.31594133  0.87873699  0.32641582  1
  F  F15  1  0.18405867  0.12126301  0.82641582  1
  F  F16  1  0.31594133  0.62126301  0.32641582  1
  F  F17  1  0.18405867  0.37873699  0.82641582  1
  F  F18  1  0.68405867  0.12126301  0.67358418  1
  F  F19  1  0.81594133  0.87873699  0.17358418  1
  F  F20  1  0.00000000  0.00000000  0.50000000  1
  F  F21  1  0.50000000  0.00000000  0.00000000  1
  F  F22  1  0.00000000  0.50000000  0.50000000  1
  F  F23  1  0.50000000  0.50000000  0.00000000  1
  Li  Li24  1  0.70240321  0.95983213  0.03838172  1
  Li  Li25  1  -0.20240321  -0.95983213  0.53838172  1
  Li  Li26  1  -0.70240321  1.45983213  -0.03838172  1
  Li  Li27  1  1.20240321  -0.45983213  0.46161828  1
  Li  Li28  1  -0.70240321  -0.95983213  -0.03838172  1
  Li  Li29  1  1.20240321  0.95983213  0.46161828  1
  Li  Li30  1  0.70240321  -0.45983213  0.03838172  1
  Li  Li31  1  -0.20240321  1.45983213  0.53838172  1
  Li  Li32  1  0.36019093  0.11537920  0.82275941  1
  Li  Li33  1  0.13980907  0.88462080  0.32275941  1
  Li  Li34  1  0.63980907  0.61537920  0.17724059  1
  Li  Li35  1  0.86019093  0.38462080  0.67724059  1
  Li  Li36  1  0.63980907  0.88462080  0.17724059  1
  Li  Li37  1  0.86019093  0.11537920  0.67724059  1
  Li  Li38  1  0.36019093  0.38462080  0.82275941  1
  Li  Li39  1  0.13980907  0.61537920  0.32275941  1
  Li  Li40  1  0.00000000  0.00000000  0.00000000  1
  Li  Li41  1  0.50000000  0.00000000  0.50000000  1
  Li  Li42  1  0.00000000  0.50000000  0.00000000  1
  Li  Li43  1  0.50000000  0.50000000  0.50000000  1
  Li  Li44  1  0.84854801  0.25000000  0.39276550  1
  Li  Li45  1  0.65145199  0.75000000  0.89276550  1
  Li  Li46  1  0.15145199  0.75000000  0.60723450  1
  Li  Li47  1  0.34854801  0.25000000  0.10723450  1
