# generated using pymatgen
data_LiYAs2P
_symmetry_space_group_name_H-M   'P 1'
_cell_length_a   4.64182766
_cell_length_b   4.75028053
_cell_length_c   6.83762273
_cell_angle_alpha   95.34519320
_cell_angle_beta   101.64071955
_cell_angle_gamma   111.46951668
_symmetry_Int_Tables_number   1
_chemical_formula_structural   LiYAs2P
_chemical_formula_sum   'Li2 Y2 As4 P2'
_cell_volume   135.09562430
_cell_formula_units_Z   2
loop_
 _symmetry_equiv_pos_site_id
 _symmetry_equiv_pos_as_xyz
  1  'x, y, z'
loop_
 _atom_site_type_symbol
 _atom_site_label
 _atom_site_symmetry_multiplicity
 _atom_site_fract_x
 _atom_site_fract_y
 _atom_site_fract_z
 _atom_site_occupancy
  P  P0  1  0.12500000  0.12500000  0.12500000  1
  P  P1  1  0.50000000  0.50000000  0.50000000  1
  As  As2  1  0.25000000  0.25000000  0.25000000  1
  As  As3  1  0.75000000  0.75000000  0.75000000  1
  As  As4  1  0.03107173  0.24054644  0.21245500  1
  As  As5  1  0.04389080  0.85125639  0.13286972  1
  Li  Li6  1  0.33208755  0.58827466  0.21865484  1
  Li  Li7  1  0.65740677  0.41467560  0.98145792  1
  Y  Y8  1  0.41066813  0.69213874  0.08482249  1
  Y  Y9  1  0.78719645  0.54517635  0.32288747  1
