# generated using pymatgen
data_LiF
_symmetry_space_group_name_H-M   'P 1'
_cell_length_a   5.73016601
_cell_length_b   5.73016601
_cell_length_c   16.99095103
_cell_angle_alpha   90.00000000
_cell_angle_beta   90.00000000
_cell_angle_gamma   120.00000000
_symmetry_Int_Tables_number   1
_chemical_formula_structural   LiF
_chemical_formula_sum   'Li25 F25'
_cell_volume   483.15082904
_cell_formula_units_Z   25
loop_
 _symmetry_equiv_pos_site_id
 _symmetry_equiv_pos_as_xyz
  1  'x, y, z'
loop_
 _atom_site_type_symbol
 _atom_site_label
 _atom_site_symmetry_multiplicity
 _atom_site_fract_x
 _atom_site_fract_y
 _atom_site_fract_z
 _atom_site_occupancy
  F  F0  1  0.41956025  0.65867732  0.26811813  1
  F  F1  1  0.34132268  0.76088293  0.26811813  1
  F  F2  1  0.23911707  0.58043975  0.26811813  1
  F  F3  1  0.34132268  0.58043975  0.73188187  1
  F  F4  1  0.23911707  0.65867732  0.73188187  1
  F  F5  1  0.41956025  0.76088293  0.73188187  1
  F  F6  1  0.33333333  0.66666667  0.00000000  1
  F  F7  1  0.34542155  0.38745286  0.63512270  1
  F  F8  1  0.61254714  0.95796870  0.63512270  1
  F  F9  1  0.04203130  0.65457845  0.63512270  1
  F  F10  1  0.61254714  0.65457845  0.36487730  1
  F  F11  1  0.04203130  0.38745286  0.36487730  1
  F  F12  1  0.34542155  0.95796870  0.36487730  1
  F  F13  1  0.56649866  0.50009212  0.43726752  1
  F  F14  1  0.49990788  0.06640654  0.43726752  1
  F  F15  1  0.93359346  0.43350134  0.43726752  1
  F  F16  1  0.49990788  0.43350134  0.56273248  1
  F  F17  1  0.93359346  0.50009212  0.56273248  1
  F  F18  1  0.56649866  0.06640654  0.56273248  1
  F  F19  1  0.30646412  0.74774996  0.10314018  1
  F  F20  1  0.25225004  0.55871416  0.10314018  1
  F  F21  1  0.44128584  0.69353588  0.10314018  1
  F  F22  1  0.25225004  0.69353588  0.89685982  1
  F  F23  1  0.44128584  0.74774996  0.89685982  1
  F  F24  1  0.30646412  0.55871416  0.89685982  1
  Li  Li25  1  0.52498528  0.14638520  0.80720564  1
  Li  Li26  1  -0.14638520  0.37860008  0.80720564  1
  Li  Li27  1  -0.37860008  -0.52498528  0.80720564  1
  Li  Li28  1  -0.14638520  -0.52498528  -0.80720564  1
  Li  Li29  1  -0.37860008  0.14638520  -0.80720564  1
  Li  Li30  1  0.52498528  0.37860008  -0.80720564  1
  Li  Li31  1  0.33333333  0.66666667  0.50000000  1
  Li  Li32  1  0.66666667  0.33333333  0.00000000  1
  Li  Li33  1  0.00000000  0.00000000  0.38817686  1
  Li  Li34  1  0.00000000  0.00000000  0.61182314  1
  Li  Li35  1  0.30124378  0.96818768  0.08348176  1
  Li  Li36  1  0.03181232  0.33305610  0.08348176  1
  Li  Li37  1  0.66694390  0.69875622  0.08348176  1
  Li  Li38  1  0.03181232  0.69875622  0.91651824  1
  Li  Li39  1  0.66694390  0.96818768  0.91651824  1
  Li  Li40  1  0.30124378  0.33305610  0.91651824  1
  Li  Li41  1  0.25562317  0.28758728  0.74992457  1
  Li  Li42  1  0.71241272  0.96803589  0.74992457  1
  Li  Li43  1  0.03196411  0.74437683  0.74992457  1
  Li  Li44  1  0.71241272  0.74437683  0.25007543  1
  Li  Li45  1  0.03196411  0.28758728  0.25007543  1
  Li  Li46  1  0.25562317  0.96803589  0.25007543  1
  Li  Li47  1  0.66666667  0.33333333  0.50000000  1
  Li  Li48  1  0.33333333  0.66666667  0.17528089  1
  Li  Li49  1  0.33333333  0.66666667  0.82471911  1
