# generated using pymatgen
data_LiF
_symmetry_space_group_name_H-M   'P 1'
_cell_length_a   8.32170827
_cell_length_b   4.42561271
_cell_length_c   8.67737472
_cell_angle_alpha   90.00000000
_cell_angle_beta   90.00000000
_cell_angle_gamma   90.00000000
_symmetry_Int_Tables_number   1
_chemical_formula_structural   LiF
_chemical_formula_sum   'Li14 F14'
_cell_volume   319.57606515
_cell_formula_units_Z   14
loop_
 _symmetry_equiv_pos_site_id
 _symmetry_equiv_pos_as_xyz
  1  'x, y, z'
loop_
 _atom_site_type_symbol
 _atom_site_label
 _atom_site_symmetry_multiplicity
 _atom_site_fract_x
 _atom_site_fract_y
 _atom_site_fract_z
 _atom_site_occupancy
  F  F0  1  0.17380749  0.09085040  0.39870614  1
  F  F1  1  -0.17380749  -0.09085040  0.39870614  1
  F  F2  1  0.32619251  0.59085040  -0.39870614  1
  F  F3  1  0.67380749  0.40914960  -0.39870614  1
  F  F4  1  -0.17380749  -0.09085040  -0.39870614  1
  F  F5  1  0.17380749  0.09085040  -0.39870614  1
  F  F6  1  0.67380749  0.40914960  0.39870614  1
  F  F7  1  0.32619251  0.59085040  0.39870614  1
  F  F8  1  0.00000000  0.50000000  0.67072829  1
  F  F9  1  0.50000000  0.00000000  0.32927171  1
  F  F10  1  0.00000000  0.50000000  0.32927171  1
  F  F11  1  0.50000000  0.00000000  0.67072829  1
  F  F12  1  0.00000000  0.00000000  0.00000000  1
  F  F13  1  0.50000000  0.50000000  0.00000000  1
  Li  Li14  1  0.00000000  0.50000000  0.50000000  1
  Li  Li15  1  0.50000000  0.00000000  0.50000000  1
  Li  Li16  1  0.30945750  0.69140815  0.73408882  1
  Li  Li17  1  0.69054250  0.30859185  0.73408882  1
  Li  Li18  1  0.19054250  0.19140815  0.26591118  1
  Li  Li19  1  0.80945750  0.80859185  0.26591118  1
  Li  Li20  1  0.69054250  0.30859185  0.26591118  1
  Li  Li21  1  0.30945750  0.69140815  0.26591118  1
  Li  Li22  1  0.80945750  0.80859185  0.73408882  1
  Li  Li23  1  0.19054250  0.19140815  0.73408882  1
  Li  Li24  1  0.00000000  0.50000000  0.00000000  1
  Li  Li25  1  0.50000000  0.00000000  0.00000000  1
  Li  Li26  1  0.00000000  0.00000000  0.50000000  1
  Li  Li27  1  0.50000000  0.50000000  0.50000000  1
