# generated using pymatgen
data_LiF
_symmetry_space_group_name_H-M   'P 1'
_cell_length_a   12.77374412
_cell_length_b   6.79204098
_cell_length_c   9.86707137
_cell_angle_alpha   90.00000000
_cell_angle_beta   90.00000000
_cell_angle_gamma   90.00000000
_symmetry_Int_Tables_number   1
_chemical_formula_structural   LiF
_chemical_formula_sum   'Li30 F30'
_cell_volume   856.06507461
_cell_formula_units_Z   30
loop_
 _symmetry_equiv_pos_site_id
 _symmetry_equiv_pos_as_xyz
  1  'x, y, z'
loop_
 _atom_site_type_symbol
 _atom_site_label
 _atom_site_symmetry_multiplicity
 _atom_site_fract_x
 _atom_site_fract_y
 _atom_site_fract_z
 _atom_site_occupancy
  F  F0  1  0.00000000  0.50000000  0.00000000  1
  F  F1  1  0.50000000  -0.00000000  0.00000000  1
  F  F2  1  0.00000000  0.00000000  0.50000000  1
  F  F3  1  0.50000000  0.50000000  0.50000000  1
  F  F4  1  0.00000000  0.00000000  0.00000000  1
  F  F5  1  0.50000000  0.50000000  0.00000000  1
  F  F6  1  0.56620608  0.40050528  0.30992878  1
  F  F7  1  -0.56620608  -0.40050528  0.30992878  1
  F  F8  1  -0.06620608  0.90050528  -0.30992878  1
  F  F9  1  1.06620608  0.09949472  -0.30992878  1
  F  F10  1  -0.56620608  -0.40050528  -0.30992878  1
  F  F11  1  0.56620608  0.40050528  -0.30992878  1
  F  F12  1  1.06620608  0.09949472  0.30992878  1
  F  F13  1  -0.06620608  0.90050528  0.30992878  1
  F  F14  1  0.13595185  0.62121435  0.81657958  1
  F  F15  1  0.86404815  0.37878565  0.81657958  1
  F  F16  1  0.36404815  0.12121435  0.18342042  1
  F  F17  1  0.63595185  0.87878565  0.18342042  1
  F  F18  1  0.86404815  0.37878565  0.18342042  1
  F  F19  1  0.13595185  0.62121435  0.18342042  1
  F  F20  1  0.63595185  0.87878565  0.81657958  1
  F  F21  1  0.36404815  0.12121435  0.81657958  1
  F  F22  1  0.18290110  0.99708794  0.83586588  1
  F  F23  1  0.81709890  0.00291206  0.83586588  1
  F  F24  1  0.31709890  0.49708794  0.16413412  1
  F  F25  1  0.68290110  0.50291206  0.16413412  1
  F  F26  1  0.81709890  0.00291206  0.16413412  1
  F  F27  1  0.18290110  0.99708794  0.16413412  1
  F  F28  1  0.68290110  0.50291206  0.83586588  1
  F  F29  1  0.31709890  0.49708794  0.83586588  1
  Li  Li30  1  0.00000000  0.50000000  0.50000000  1
  Li  Li31  1  0.50000000  -0.00000000  0.50000000  1
  Li  Li32  1  0.52865571  0.19644220  0.00000000  1
  Li  Li33  1  0.47134429  0.80355780  0.00000000  1
  Li  Li34  1  0.97134429  0.69644220  0.00000000  1
  Li  Li35  1  0.02865571  0.30355780  0.00000000  1
  Li  Li36  1  0.61205944  0.80651235  0.68720475  1
  Li  Li37  1  0.38794056  0.19348765  0.68720475  1
  Li  Li38  1  0.88794056  0.30651235  0.31279525  1
  Li  Li39  1  0.11205944  0.69348765  0.31279525  1
  Li  Li40  1  0.38794056  0.19348765  0.31279525  1
  Li  Li41  1  0.61205944  0.80651235  0.31279525  1
  Li  Li42  1  0.11205944  0.69348765  0.68720475  1
  Li  Li43  1  0.88794056  0.30651235  0.68720475  1
  Li  Li44  1  0.38757992  0.26585845  0.50000000  1
  Li  Li45  1  0.61242008  0.73414155  0.50000000  1
  Li  Li46  1  0.11242008  0.76585845  0.50000000  1
  Li  Li47  1  0.88757992  0.23414155  0.50000000  1
  Li  Li48  1  0.55706749  0.88121196  0.90319850  1
  Li  Li49  1  0.44293251  0.11878804  0.90319850  1
  Li  Li50  1  0.94293251  0.38121196  0.09680150  1
  Li  Li51  1  0.05706749  0.61878804  0.09680150  1
  Li  Li52  1  0.44293251  0.11878804  0.09680150  1
  Li  Li53  1  0.55706749  0.88121196  0.09680150  1
  Li  Li54  1  0.05706749  0.61878804  0.90319850  1
  Li  Li55  1  0.94293251  0.38121196  0.90319850  1
  Li  Li56  1  0.00000000  0.50000000  0.34634893  1
  Li  Li57  1  0.50000000  -0.00000000  0.65365107  1
  Li  Li58  1  0.00000000  0.50000000  0.65365107  1
  Li  Li59  1  0.50000000  -0.00000000  0.34634893  1
