# generated using pymatgen
data_Li2Y2As2P3Se
_symmetry_space_group_name_H-M   'P 1'
_cell_length_a   5.57673598
_cell_length_b   5.46786065
_cell_length_c   7.18521291
_cell_angle_alpha   93.74080250
_cell_angle_beta   98.14669014
_cell_angle_gamma   105.02531688
_symmetry_Int_Tables_number   1
_chemical_formula_structural   Li2Y2As2P3Se
_chemical_formula_sum   'Li2 Y2 As2 P3 Se1'
_cell_volume   208.27623748
_cell_formula_units_Z   1
loop_
 _symmetry_equiv_pos_site_id
 _symmetry_equiv_pos_as_xyz
  1  'x, y, z'
loop_
 _atom_site_type_symbol
 _atom_site_label
 _atom_site_symmetry_multiplicity
 _atom_site_fract_x
 _atom_site_fract_y
 _atom_site_fract_z
 _atom_site_occupancy
  Se  Se0  1  0.00000000  0.00000000  0.00000000  1
  Y  Y1  1  0.50000000  0.50000000  0.50000000  1
  Y  Y2  1  0.50000000  0.50000000  0.00000000  1
  P  P3  1  0.50000000  0.00000000  0.50000000  1
  P  P4  1  0.00000000  0.50000000  0.50000000  1
  P  P5  1  0.58461854  0.46154671  0.15458018  1
  As  As6  1  0.35024954  0.49178108  0.85921494  1
  As  As7  1  0.79975697  0.30939165  0.44465341  1
  Li  Li8  1  0.84314426  0.82594930  0.96119207  1
  Li  Li9  1  0.40366496  0.48216827  0.41704472  1
