# generated using pymatgen
data_LiCaF3
_symmetry_space_group_name_H-M   'P 1'
_cell_length_a   14.01676778
_cell_length_b   14.49995011
_cell_length_c   6.60172685
_cell_angle_alpha   90.00000000
_cell_angle_beta   90.00000000
_cell_angle_gamma   90.00000000
_symmetry_Int_Tables_number   1
_chemical_formula_structural   LiCaF3
_chemical_formula_sum   'Li18 Ca18 F54'
_cell_volume   1341.75102952
_cell_formula_units_Z   18
loop_
 _symmetry_equiv_pos_site_id
 _symmetry_equiv_pos_as_xyz
  1  'x, y, z'
loop_
 _atom_site_type_symbol
 _atom_site_label
 _atom_site_symmetry_multiplicity
 _atom_site_fract_x
 _atom_site_fract_y
 _atom_site_fract_z
 _atom_site_occupancy
  Ca  Ca0  1  0.43799062  0.73820264  0.70075009  1
  Ca  Ca1  1  -0.43799062  -0.73820264  0.70075009  1
  Ca  Ca2  1  0.06200938  1.23820264  -0.70075009  1
  Ca  Ca3  1  0.93799062  -0.23820264  -0.70075009  1
  Ca  Ca4  1  -0.43799062  -0.73820264  -0.70075009  1
  Ca  Ca5  1  0.43799062  0.73820264  -0.70075009  1
  Ca  Ca6  1  0.93799062  -0.23820264  0.70075009  1
  Ca  Ca7  1  0.06200938  1.23820264  0.70075009  1
  Ca  Ca8  1  0.29774459  0.70195997  0.50000000  1
  Ca  Ca9  1  0.70225541  0.29804003  0.50000000  1
  Ca  Ca10  1  0.20225541  0.20195997  0.50000000  1
  Ca  Ca11  1  0.79774459  0.79804003  0.50000000  1
  Ca  Ca12  1  0.00000000  0.00000000  0.00000000  1
  Ca  Ca13  1  0.50000000  0.50000000  0.00000000  1
  Ca  Ca14  1  0.62560908  0.58716162  0.50000000  1
  Ca  Ca15  1  0.37439092  0.41283838  0.50000000  1
  Ca  Ca16  1  0.87439092  0.08716162  0.50000000  1
  Ca  Ca17  1  0.12560908  0.91283838  0.50000000  1
  F  F18  1  0.49272903  0.75268387  0.00000000  1
  F  F19  1  0.50727097  0.24731613  0.00000000  1
  F  F20  1  0.00727097  0.25268387  0.00000000  1
  F  F21  1  0.99272903  0.74731613  0.00000000  1
  F  F22  1  0.00000000  0.50000000  0.00000000  1
  F  F23  1  0.50000000  0.00000000  0.00000000  1
  F  F24  1  0.33284072  0.86835066  0.32232229  1
  F  F25  1  0.66715928  0.13164934  0.32232229  1
  F  F26  1  0.16715928  0.36835066  0.67767771  1
  F  F27  1  0.83284072  0.63164934  0.67767771  1
  F  F28  1  0.66715928  0.13164934  0.67767771  1
  F  F29  1  0.33284072  0.86835066  0.67767771  1
  F  F30  1  0.83284072  0.63164934  0.32232229  1
  F  F31  1  0.16715928  0.36835066  0.32232229  1
  F  F32  1  0.37388958  0.51764447  0.62124421  1
  F  F33  1  0.62611042  0.48235553  0.62124421  1
  F  F34  1  0.12611042  0.01764447  0.37875579  1
  F  F35  1  0.87388958  0.98235553  0.37875579  1
  F  F36  1  0.62611042  0.48235553  0.37875579  1
  F  F37  1  0.37388958  0.51764447  0.37875579  1
  F  F38  1  0.87388958  0.98235553  0.62124421  1
  F  F39  1  0.12611042  0.01764447  0.62124421  1
  F  F40  1  0.84631647  0.74810442  0.68735504  1
  F  F41  1  0.15368353  0.25189558  0.68735504  1
  F  F42  1  0.65368353  0.24810442  0.31264496  1
  F  F43  1  0.34631647  0.75189558  0.31264496  1
  F  F44  1  0.15368353  0.25189558  0.31264496  1
  F  F45  1  0.84631647  0.74810442  0.31264496  1
  F  F46  1  0.34631647  0.75189558  0.68735504  1
  F  F47  1  0.65368353  0.24810442  0.68735504  1
  F  F48  1  0.95314178  0.99100581  0.62094611  1
  F  F49  1  0.04685822  0.00899419  0.62094611  1
  F  F50  1  0.54685822  0.49100581  0.37905389  1
  F  F51  1  0.45314178  0.50899419  0.37905389  1
  F  F52  1  0.04685822  0.00899419  0.37905389  1
  F  F53  1  0.95314178  0.99100581  0.37905389  1
  F  F54  1  0.45314178  0.50899419  0.62094611  1
  F  F55  1  0.54685822  0.49100581  0.62094611  1
  F  F56  1  0.43204511  0.21787391  0.75252825  1
  F  F57  1  0.56795489  0.78212609  0.75252825  1
  F  F58  1  0.06795489  0.71787391  0.24747175  1
  F  F59  1  0.93204511  0.28212609  0.24747175  1
  F  F60  1  0.56795489  0.78212609  0.24747175  1
  F  F61  1  0.43204511  0.21787391  0.24747175  1
  F  F62  1  0.93204511  0.28212609  0.75252825  1
  F  F63  1  0.06795489  0.71787391  0.75252825  1
  F  F64  1  0.10280954  0.19037293  0.00000000  1
  F  F65  1  0.89719046  0.80962707  0.00000000  1
  F  F66  1  0.39719046  0.69037293  0.00000000  1
  F  F67  1  0.60280954  0.30962707  -0.00000000  1
  F  F68  1  0.00000000  0.00000000  0.40186071  1
  F  F69  1  0.50000000  0.50000000  0.59813929  1
  F  F70  1  0.00000000  0.00000000  0.59813929  1
  F  F71  1  0.50000000  0.50000000  0.40186071  1
  Li  Li72  1  0.21545491  0.43365146  0.00000000  1
  Li  Li73  1  0.78454509  0.56634854  0.00000000  1
  Li  Li74  1  0.28454509  0.93365146  0.00000000  1
  Li  Li75  1  0.71545491  0.06634854  -0.00000000  1
  Li  Li76  1  0.46734713  0.29180264  0.16887937  1
  Li  Li77  1  0.53265287  0.70819736  0.16887937  1
  Li  Li78  1  0.03265287  0.79180264  0.83112063  1
  Li  Li79  1  0.96734713  0.20819736  0.83112063  1
  Li  Li80  1  0.53265287  0.70819736  0.83112063  1
  Li  Li81  1  0.46734713  0.29180264  0.83112063  1
  Li  Li82  1  0.96734713  0.20819736  0.16887937  1
  Li  Li83  1  0.03265287  0.79180264  0.16887937  1
  Li  Li84  1  0.00000000  0.50000000  0.27236532  1
  Li  Li85  1  0.50000000  0.00000000  0.72763468  1
  Li  Li86  1  0.00000000  0.50000000  0.72763468  1
  Li  Li87  1  0.50000000  0.00000000  0.27236532  1
  Li  Li88  1  0.00000000  0.50000000  0.50000000  1
  Li  Li89  1  0.50000000  0.00000000  0.50000000  1
