# generated using pymatgen
data_LiCaF3
_symmetry_space_group_name_H-M   'P 1'
_cell_length_a   11.00399842
_cell_length_b   11.00399842
_cell_length_c   13.47955327
_cell_angle_alpha   90.00000000
_cell_angle_beta   90.00000000
_cell_angle_gamma   90.00000000
_symmetry_Int_Tables_number   1
_chemical_formula_structural   LiCaF3
_chemical_formula_sum   'Li18 Ca18 F54'
_cell_volume   1632.21189436
_cell_formula_units_Z   18
loop_
 _symmetry_equiv_pos_site_id
 _symmetry_equiv_pos_as_xyz
  1  'x, y, z'
loop_
 _atom_site_type_symbol
 _atom_site_label
 _atom_site_symmetry_multiplicity
 _atom_site_fract_x
 _atom_site_fract_y
 _atom_site_fract_z
 _atom_site_occupancy
  Ca  Ca0  1  0.25285075  0.50000000  0.59630446  1
  Ca  Ca1  1  0.74714925  0.50000000  0.59630446  1
  Ca  Ca2  1  0.50000000  0.25285075  0.59630446  1
  Ca  Ca3  1  0.50000000  0.74714925  0.59630446  1
  Ca  Ca4  1  0.74714925  0.50000000  0.40369554  1
  Ca  Ca5  1  0.25285075  0.50000000  0.40369554  1
  Ca  Ca6  1  0.50000000  0.25285075  0.40369554  1
  Ca  Ca7  1  0.50000000  0.74714925  0.40369554  1
  Ca  Ca8  1  0.31139585  0.50000000  0.82146305  1
  Ca  Ca9  1  0.68860415  0.50000000  0.82146305  1
  Ca  Ca10  1  0.50000000  0.31139585  0.82146305  1
  Ca  Ca11  1  0.50000000  0.68860415  0.82146305  1
  Ca  Ca12  1  0.68860415  0.50000000  0.17853695  1
  Ca  Ca13  1  0.31139585  0.50000000  0.17853695  1
  Ca  Ca14  1  0.50000000  0.31139585  0.17853695  1
  Ca  Ca15  1  0.50000000  0.68860415  0.17853695  1
  Ca  Ca16  1  0.00000000  0.00000000  0.68179964  1
  Ca  Ca17  1  0.00000000  0.00000000  0.31820036  1
  F  F18  1  0.35207705  0.35207705  0.66839402  1
  F  F19  1  0.64792295  0.64792295  0.66839402  1
  F  F20  1  0.64792295  0.35207705  0.66839402  1
  F  F21  1  0.35207705  0.64792295  0.66839402  1
  F  F22  1  0.64792295  0.35207705  0.33160598  1
  F  F23  1  0.35207705  0.64792295  0.33160598  1
  F  F24  1  0.35207705  0.35207705  0.33160598  1
  F  F25  1  0.64792295  0.64792295  0.33160598  1
  F  F26  1  0.00000000  0.50000000  0.38719285  1
  F  F27  1  0.50000000  -0.00000000  0.38719285  1
  F  F28  1  0.00000000  0.50000000  0.61280715  1
  F  F29  1  0.50000000  -0.00000000  0.61280715  1
  F  F30  1  0.68624433  0.93178772  0.50000000  1
  F  F31  1  0.31375567  0.06821228  0.50000000  1
  F  F32  1  0.06821228  0.68624433  0.50000000  1
  F  F33  1  0.93178772  0.31375567  0.50000000  1
  F  F34  1  0.31375567  0.93178772  0.50000000  1
  F  F35  1  0.68624433  0.06821228  0.50000000  1
  F  F36  1  0.93178772  0.68624433  0.50000000  1
  F  F37  1  0.06821228  0.31375567  0.50000000  1
  F  F38  1  0.94009567  0.26238494  0.62728061  1
  F  F39  1  -0.94009567  -0.26238494  0.62728061  1
  F  F40  1  -0.26238494  0.94009567  0.62728061  1
  F  F41  1  0.26238494  -0.94009567  0.62728061  1
  F  F42  1  -0.94009567  0.26238494  -0.62728061  1
  F  F43  1  0.94009567  -0.26238494  -0.62728061  1
  F  F44  1  0.26238494  0.94009567  -0.62728061  1
  F  F45  1  -0.26238494  -0.94009567  -0.62728061  1
  F  F46  1  -0.94009567  -0.26238494  -0.62728061  1
  F  F47  1  0.94009567  0.26238494  -0.62728061  1
  F  F48  1  0.26238494  -0.94009567  -0.62728061  1
  F  F49  1  -0.26238494  0.94009567  -0.62728061  1
  F  F50  1  0.94009567  -0.26238494  0.62728061  1
  F  F51  1  -0.94009567  0.26238494  0.62728061  1
  F  F52  1  -0.26238494  -0.94009567  0.62728061  1
  F  F53  1  0.26238494  0.94009567  0.62728061  1
  F  F54  1  0.83095777  0.68089149  0.87558191  1
  F  F55  1  0.16904223  0.31910851  0.87558191  1
  F  F56  1  0.31910851  0.83095777  0.87558191  1
  F  F57  1  0.68089149  0.16904223  0.87558191  1
  F  F58  1  0.16904223  0.68089149  0.12441809  1
  F  F59  1  0.83095777  0.31910851  0.12441809  1
  F  F60  1  0.68089149  0.83095777  0.12441809  1
  F  F61  1  0.31910851  0.16904223  0.12441809  1
  F  F62  1  0.16904223  0.31910851  0.12441809  1
  F  F63  1  0.83095777  0.68089149  0.12441809  1
  F  F64  1  0.68089149  0.16904223  0.12441809  1
  F  F65  1  0.31910851  0.83095777  0.12441809  1
  F  F66  1  0.83095777  0.31910851  0.87558191  1
  F  F67  1  0.16904223  0.68089149  0.87558191  1
  F  F68  1  0.31910851  0.16904223  0.87558191  1
  F  F69  1  0.68089149  0.83095777  0.87558191  1
  F  F70  1  0.50000000  0.50000000  0.07211967  1
  F  F71  1  0.50000000  0.50000000  0.92788033  1
  Li  Li72  1  0.00000000  0.00000000  0.50000000  1
  Li  Li73  1  0.89190251  0.50000000  0.18116536  1
  Li  Li74  1  0.10809749  0.50000000  0.18116536  1
  Li  Li75  1  0.50000000  0.89190251  0.18116536  1
  Li  Li76  1  0.50000000  0.10809749  0.18116536  1
  Li  Li77  1  0.10809749  0.50000000  0.81883464  1
  Li  Li78  1  0.89190251  0.50000000  0.81883464  1
  Li  Li79  1  0.50000000  0.89190251  0.81883464  1
  Li  Li80  1  0.50000000  0.10809749  0.81883464  1
  Li  Li81  1  0.20855315  0.00000000  0.50000000  1
  Li  Li82  1  0.79144685  0.00000000  0.50000000  1
  Li  Li83  1  0.00000000  0.20855315  0.50000000  1
  Li  Li84  1  0.00000000  0.79144685  0.50000000  1
  Li  Li85  1  0.20574943  0.50000000  -0.00000000  1
  Li  Li86  1  0.79425057  0.50000000  -0.00000000  1
  Li  Li87  1  0.50000000  0.20574943  -0.00000000  1
  Li  Li88  1  0.50000000  0.79425057  0.00000000  1
  Li  Li89  1  0.50000000  0.50000000  0.50000000  1
