# generated using pymatgen
data_LiSbTe2P
_symmetry_space_group_name_H-M   'P 1'
_cell_length_a   5.21186762
_cell_length_b   5.28650992
_cell_length_c   7.33220296
_cell_angle_alpha   95.25148326
_cell_angle_beta   101.43663877
_cell_angle_gamma   111.09312108
_symmetry_Int_Tables_number   1
_chemical_formula_structural   LiSbTe2P
_chemical_formula_sum   'Li2 Sb2 Te4 P2'
_cell_volume   181.78835034
_cell_formula_units_Z   2
loop_
 _symmetry_equiv_pos_site_id
 _symmetry_equiv_pos_as_xyz
  1  'x, y, z'
loop_
 _atom_site_type_symbol
 _atom_site_label
 _atom_site_symmetry_multiplicity
 _atom_site_fract_x
 _atom_site_fract_y
 _atom_site_fract_z
 _atom_site_occupancy
  P  P0  1  0.12500000  0.00000000  0.25000000  1
  P  P1  1  0.00000000  0.00000000  0.00000000  1
  Te  Te2  1  0.37500000  0.00000000  0.25000000  1
  Te  Te3  1  0.25000000  0.25000000  0.25000000  1
  Te  Te4  1  0.00000000  0.25000000  0.12500000  1
  Te  Te5  1  0.81820684  0.37220356  0.88055271  1
  Li  Li6  1  0.94668131  0.81361536  0.56590462  1
  Li  Li7  1  0.16904428  0.23259459  0.85453033  1
  Sb  Sb8  1  0.53721618  0.22642501  0.20796453  1
  Sb  Sb9  1  0.60830730  0.47687391  0.20735059  1
