# generated using pymatgen
data_Li(YP)2
_symmetry_space_group_name_H-M   'P 1'
_cell_length_a   5.37536991
_cell_length_b   5.48827756
_cell_length_c   7.07820641
_cell_angle_alpha   93.94564049
_cell_angle_beta   97.74563767
_cell_angle_gamma   104.51951893
_symmetry_Int_Tables_number   1
_chemical_formula_structural   Li(YP)2
_chemical_formula_sum   'Li1 Y2 P2'
_cell_volume   199.15523756
_cell_formula_units_Z   1
loop_
 _symmetry_equiv_pos_site_id
 _symmetry_equiv_pos_as_xyz
  1  'x, y, z'
loop_
 _atom_site_type_symbol
 _atom_site_label
 _atom_site_symmetry_multiplicity
 _atom_site_fract_x
 _atom_site_fract_y
 _atom_site_fract_z
 _atom_site_occupancy
  P  P0  1  0.00000000  0.00000000  0.00000000  1
  P  P1  1  0.50000000  0.50000000  0.50000000  1
  Li  Li2  1  0.50000000  0.50000000  0.00000000  1
  Y  Y3  1  0.50000000  0.00000000  0.50000000  1
  Y  Y4  1  0.00000000  0.50000000  0.50000000  1
