# generated using pymatgen
data_LiF
_symmetry_space_group_name_H-M   'P 1'
_cell_length_a   10.08930792
_cell_length_b   10.08930792
_cell_length_c   10.08930792
_cell_angle_alpha   90.00000000
_cell_angle_beta   90.00000000
_cell_angle_gamma   90.00000000
_symmetry_Int_Tables_number   1
_chemical_formula_structural   LiF
_chemical_formula_sum   'Li48 F48'
_cell_volume   1027.03236600
_cell_formula_units_Z   48
loop_
 _symmetry_equiv_pos_site_id
 _symmetry_equiv_pos_as_xyz
  1  'x, y, z'
loop_
 _atom_site_type_symbol
 _atom_site_label
 _atom_site_symmetry_multiplicity
 _atom_site_fract_x
 _atom_site_fract_y
 _atom_site_fract_z
 _atom_site_occupancy
  F  F0  1  0.87853378  0.62022769  0.74878944  1
  F  F1  1  -0.37853378  -0.62022769  1.24878944  1
  F  F2  1  -0.87853378  1.12022769  -0.24878944  1
  F  F3  1  1.37853378  -0.12022769  -0.74878944  1
  F  F4  1  0.74878944  0.87853378  0.62022769  1
  F  F5  1  1.24878944  -0.37853378  -0.62022769  1
  F  F6  1  -0.24878944  -0.87853378  1.12022769  1
  F  F7  1  -0.74878944  1.37853378  -0.12022769  1
  F  F8  1  0.62022769  0.74878944  0.87853378  1
  F  F9  1  -0.62022769  1.24878944  -0.37853378  1
  F  F10  1  1.12022769  -0.24878944  -0.87853378  1
  F  F11  1  -0.12022769  -0.74878944  1.37853378  1
  F  F12  1  1.37022769  1.12853378  -0.49878944  1
  F  F13  1  0.12977231  -0.12853378  0.00121056  1
  F  F14  1  0.87022769  -0.62853378  1.49878944  1
  F  F15  1  -0.37022769  1.62853378  0.99878944  1
  F  F16  1  1.62853378  0.99878944  -0.37022769  1
  F  F17  1  -0.62853378  1.49878944  0.87022769  1
  F  F18  1  -0.12853378  0.00121056  0.12977231  1
  F  F19  1  1.12853378  -0.49878944  1.37022769  1
  F  F20  1  1.49878944  0.87022769  -0.62853378  1
  F  F21  1  0.99878944  -0.37022769  1.62853378  1
  F  F22  1  -0.49878944  1.37022769  1.12853378  1
  F  F23  1  0.00121056  0.12977231  -0.12853378  1
  F  F24  1  1.37853378  1.12022769  1.24878944  1
  F  F25  1  0.12146622  -0.12022769  1.74878944  1
  F  F26  1  -0.37853378  1.62022769  0.25121056  1
  F  F27  1  1.87853378  0.37977231  -0.24878944  1
  F  F28  1  1.24878944  1.37853378  1.12022769  1
  F  F29  1  1.74878944  0.12146622  -0.12022769  1
  F  F30  1  0.25121056  -0.37853378  1.62022769  1
  F  F31  1  -0.24878944  1.87853378  0.37977231  1
  F  F32  1  1.12022769  1.24878944  1.37853378  1
  F  F33  1  -0.12022769  1.74878944  0.12146622  1
  F  F34  1  1.62022769  0.25121056  -0.37853378  1
  F  F35  1  0.37977231  -0.24878944  1.87853378  1
  F  F36  1  1.87022769  1.62853378  0.00121056  1
  F  F37  1  0.62977231  0.37146622  0.50121056  1
  F  F38  1  1.37022769  -0.12853378  1.99878944  1
  F  F39  1  0.12977231  2.12853378  1.49878944  1
  F  F40  1  2.12853378  1.49878944  0.12977231  1
  F  F41  1  -0.12853378  1.99878944  1.37022769  1
  F  F42  1  0.37146622  0.50121056  0.62977231  1
  F  F43  1  1.62853378  0.00121056  1.87022769  1
  F  F44  1  1.99878944  1.37022769  -0.12853378  1
  F  F45  1  1.49878944  0.12977231  2.12853378  1
  F  F46  1  0.00121056  1.87022769  1.62853378  1
  F  F47  1  0.50121056  0.62977231  0.37146622  1
  Li  Li48  1  0.67640387  0.78200219  0.57545082  1
  Li  Li49  1  0.82359613  0.21799781  0.07545082  1
  Li  Li50  1  0.32359613  0.28200219  0.92454918  1
  Li  Li51  1  0.17640387  0.71799781  0.42454918  1
  Li  Li52  1  0.57545082  0.67640387  0.78200219  1
  Li  Li53  1  0.07545082  0.82359613  0.21799781  1
  Li  Li54  1  0.92454918  0.32359613  0.28200219  1
  Li  Li55  1  0.42454918  0.17640387  0.71799781  1
  Li  Li56  1  0.78200219  0.57545082  0.67640387  1
  Li  Li57  1  0.21799781  0.07545082  0.82359613  1
  Li  Li58  1  0.28200219  0.92454918  0.32359613  1
  Li  Li59  1  0.71799781  0.42454918  0.17640387  1
  Li  Li60  1  0.53200219  0.92640387  0.67454918  1
  Li  Li61  1  0.96799781  0.07359613  0.17454918  1
  Li  Li62  1  0.03200219  0.57359613  0.32545082  1
  Li  Li63  1  0.46799781  0.42640387  0.82545082  1
  Li  Li64  1  0.42640387  0.82545082  0.46799781  1
  Li  Li65  1  0.57359613  0.32545082  0.03200219  1
  Li  Li66  1  0.07359613  0.17454918  0.96799781  1
  Li  Li67  1  0.92640387  0.67454918  0.53200219  1
  Li  Li68  1  0.32545082  0.03200219  0.57359613  1
  Li  Li69  1  0.82545082  0.46799781  0.42640387  1
  Li  Li70  1  0.67454918  0.53200219  0.92640387  1
  Li  Li71  1  0.17454918  0.96799781  0.07359613  1
  Li  Li72  1  0.17640387  0.28200219  0.07545082  1
  Li  Li73  1  0.32359613  0.71799781  0.57545082  1
  Li  Li74  1  0.82359613  0.78200219  0.42454918  1
  Li  Li75  1  0.67640387  0.21799781  0.92454918  1
  Li  Li76  1  0.07545082  0.17640387  0.28200219  1
  Li  Li77  1  0.57545082  0.32359613  0.71799781  1
  Li  Li78  1  0.42454918  0.82359613  0.78200219  1
  Li  Li79  1  0.92454918  0.67640387  0.21799781  1
  Li  Li80  1  0.28200219  0.07545082  0.17640387  1
  Li  Li81  1  0.71799781  0.57545082  0.32359613  1
  Li  Li82  1  0.78200219  0.42454918  0.82359613  1
  Li  Li83  1  0.21799781  0.92454918  0.67640387  1
  Li  Li84  1  0.03200219  0.42640387  0.17454918  1
  Li  Li85  1  0.46799781  0.57359613  0.67454918  1
  Li  Li86  1  0.53200219  0.07359613  0.82545082  1
  Li  Li87  1  0.96799781  0.92640387  0.32545082  1
  Li  Li88  1  0.92640387  0.32545082  0.96799781  1
  Li  Li89  1  0.07359613  0.82545082  0.53200219  1
  Li  Li90  1  0.57359613  0.67454918  0.46799781  1
  Li  Li91  1  0.42640387  0.17454918  0.03200219  1
  Li  Li92  1  0.82545082  0.53200219  0.07359613  1
  Li  Li93  1  0.32545082  0.96799781  0.92640387  1
  Li  Li94  1  0.17454918  0.03200219  0.42640387  1
  Li  Li95  1  0.67454918  0.46799781  0.57359613  1
