# generated using pymatgen
data_Li2YTe4MoP3
_symmetry_space_group_name_H-M   'P 1'
_cell_length_a   5.43595758
_cell_length_b   5.55777898
_cell_length_c   7.31645440
_cell_angle_alpha   94.59987166
_cell_angle_beta   100.01756418
_cell_angle_gamma   108.47585628
_symmetry_Int_Tables_number   1
_chemical_formula_structural   Li2YTe4MoP3
_chemical_formula_sum   'Li2 Y1 Te4 Mo1 P3'
_cell_volume   204.27580250
_cell_formula_units_Z   1
loop_
 _symmetry_equiv_pos_site_id
 _symmetry_equiv_pos_as_xyz
  1  'x, y, z'
loop_
 _atom_site_type_symbol
 _atom_site_label
 _atom_site_symmetry_multiplicity
 _atom_site_fract_x
 _atom_site_fract_y
 _atom_site_fract_z
 _atom_site_occupancy
  Te  Te0  1  0.12500000  0.00000000  0.25000000  1
  Te  Te1  1  0.00000000  0.00000000  0.00000000  1
  Te  Te2  1  0.37500000  0.00000000  0.25000000  1
  Te  Te3  1  0.25000000  0.25000000  0.25000000  1
  P  P4  1  0.00000000  0.25000000  0.12500000  1
  P  P5  1  0.40560635  0.04830318  0.92173088  1
  P  P6  1  0.71076538  0.18674780  0.34701567  1
  Mo  Mo7  1  0.85759559  0.70289673  0.45920260  1
  Li  Li8  1  0.11267747  0.40068964  0.93166988  1
  Li  Li9  1  0.78906098  0.54466466  0.43037837  1
  Y  Y10  1  0.55110689  0.40468973  0.75401676  1
