# generated using pymatgen
data_Li2YTe4P2Se
_symmetry_space_group_name_H-M   'P 1'
_cell_length_a   4.97009136
_cell_length_b   5.09082620
_cell_length_c   6.95701382
_cell_angle_alpha   95.09409638
_cell_angle_beta   100.56016377
_cell_angle_gamma   109.62394774
_symmetry_Int_Tables_number   1
_chemical_formula_structural   Li2YTe4P2Se
_chemical_formula_sum   'Li2 Y1 Te4 P2 Se1'
_cell_volume   160.83051868
_cell_formula_units_Z   1
loop_
 _symmetry_equiv_pos_site_id
 _symmetry_equiv_pos_as_xyz
  1  'x, y, z'
loop_
 _atom_site_type_symbol
 _atom_site_label
 _atom_site_symmetry_multiplicity
 _atom_site_fract_x
 _atom_site_fract_y
 _atom_site_fract_z
 _atom_site_occupancy
  Se  Se0  1  0.00000000  0.00000000  0.00000000  1
  Te  Te1  1  0.50000000  0.50000000  0.50000000  1
  Te  Te2  1  0.25000000  0.25000000  0.25000000  1
  Te  Te3  1  0.75000000  0.25000000  0.00000000  1
  Te  Te4  1  0.25000000  0.75000000  0.50000000  1
  P  P5  1  0.19937048  0.62576727  0.34559628  1
  P  P6  1  0.12832131  0.02921263  0.00755803  1
  Li  Li7  1  0.88993763  0.19949306  0.08451998  1
  Li  Li8  1  0.87812425  0.03932956  0.07835639  1
  Y  Y9  1  0.86700804  0.44190971  0.93742432  1
