# generated using pymatgen
data_LiF
_symmetry_space_group_name_H-M   'P 1'
_cell_length_a   4.68220803
_cell_length_b   9.16296158
_cell_length_c   6.55973973
_cell_angle_alpha   90.00000000
_cell_angle_beta   90.00000000
_cell_angle_gamma   90.00000000
_symmetry_Int_Tables_number   1
_chemical_formula_structural   LiF
_chemical_formula_sum   'Li24 F24'
_cell_volume   281.43180715
_cell_formula_units_Z   24
loop_
 _symmetry_equiv_pos_site_id
 _symmetry_equiv_pos_as_xyz
  1  'x, y, z'
loop_
 _atom_site_type_symbol
 _atom_site_label
 _atom_site_symmetry_multiplicity
 _atom_site_fract_x
 _atom_site_fract_y
 _atom_site_fract_z
 _atom_site_occupancy
  F  F0  1  0.39705584  0.25000000  0.64149401  1
  F  F1  1  0.10294416  0.75000000  0.14149401  1
  F  F2  1  0.60294416  0.75000000  0.35850599  1
  F  F3  1  0.89705584  0.25000000  0.85850599  1
  F  F4  1  0.16911001  0.31190753  0.99312703  1
  F  F5  1  0.33088999  0.68809247  0.49312703  1
  F  F6  1  0.83088999  0.81190753  0.00687297  1
  F  F7  1  0.66911001  0.18809247  0.50687297  1
  F  F8  1  0.83088999  0.68809247  0.00687297  1
  F  F9  1  0.66911001  0.31190753  0.50687297  1
  F  F10  1  0.16911001  0.18809247  0.99312703  1
  F  F11  1  0.33088999  0.81190753  0.49312703  1
  F  F12  1  0.70837490  0.19302265  0.24113860  1
  F  F13  1  0.79162510  0.80697735  0.74113860  1
  F  F14  1  0.29162510  0.69302265  0.75886140  1
  F  F15  1  0.20837490  0.30697735  0.25886140  1
  F  F16  1  0.29162510  0.80697735  0.75886140  1
  F  F17  1  0.20837490  0.19302265  0.25886140  1
  F  F18  1  0.70837490  0.30697735  0.24113860  1
  F  F19  1  0.79162510  0.69302265  0.74113860  1
  F  F20  1  0.82770001  0.25000000  0.40460606  1
  F  F21  1  0.67229999  0.75000000  0.90460606  1
  F  F22  1  0.17229999  0.75000000  0.59539394  1
  F  F23  1  0.32770001  0.25000000  0.09539394  1
  Li  Li24  1  0.96548162  0.11626947  0.28298068  1
  Li  Li25  1  -0.46548162  -0.11626947  0.78298068  1
  Li  Li26  1  -0.96548162  0.61626947  -0.28298068  1
  Li  Li27  1  1.46548162  0.38373053  0.21701932  1
  Li  Li28  1  -0.96548162  -0.11626947  -0.28298068  1
  Li  Li29  1  1.46548162  0.11626947  0.21701932  1
  Li  Li30  1  0.96548162  0.38373053  0.28298068  1
  Li  Li31  1  -0.46548162  0.61626947  0.78298068  1
  Li  Li32  1  0.56301547  0.39458916  0.72860587  1
  Li  Li33  1  0.93698453  0.60541084  0.22860587  1
  Li  Li34  1  0.43698453  0.89458916  0.27139413  1
  Li  Li35  1  0.06301547  0.10541084  0.77139413  1
  Li  Li36  1  0.43698453  0.60541084  0.27139413  1
  Li  Li37  1  0.06301547  0.39458916  0.77139413  1
  Li  Li38  1  0.56301547  0.10541084  0.72860587  1
  Li  Li39  1  0.93698453  0.89458916  0.22860587  1
  Li  Li40  1  0.71548143  0.42127327  0.06065773  1
  Li  Li41  1  0.78451857  0.57872673  0.56065773  1
  Li  Li42  1  0.28451857  0.92127327  0.93934227  1
  Li  Li43  1  0.21548143  0.07872673  0.43934227  1
  Li  Li44  1  0.28451857  0.57872673  0.93934227  1
  Li  Li45  1  0.21548143  0.42127327  0.43934227  1
  Li  Li46  1  0.71548143  0.07872673  0.06065773  1
  Li  Li47  1  0.78451857  0.92127327  0.56065773  1
