# generated using pymatgen
data_Li2Si4Te3F12
_symmetry_space_group_name_H-M   'P 1'
_cell_length_a   14.83810135
_cell_length_b   14.83810135
_cell_length_c   5.32077828
_cell_angle_alpha   90.00000000
_cell_angle_beta   90.00000000
_cell_angle_gamma   90.00000000
_symmetry_Int_Tables_number   1
_chemical_formula_structural   Li2Si4Te3F12
_chemical_formula_sum   'Li8 Si16 Te12 F48'
_cell_volume   1171.47177295
_cell_formula_units_Z   4
loop_
 _symmetry_equiv_pos_site_id
 _symmetry_equiv_pos_as_xyz
  1  'x, y, z'
loop_
 _atom_site_type_symbol
 _atom_site_label
 _atom_site_symmetry_multiplicity
 _atom_site_fract_x
 _atom_site_fract_y
 _atom_site_fract_z
 _atom_site_occupancy
  F  F0  1  0.00000000  0.16123594  0.59361826  1
  F  F1  1  0.50000000  0.83876406  0.09361826  1
  F  F2  1  0.08876406  0.75000000  0.84361826  1
  F  F3  1  0.41123594  0.25000000  0.34361826  1
  F  F4  1  0.50000000  0.16123594  0.90638174  1
  F  F5  1  0.00000000  0.83876406  0.40638174  1
  F  F6  1  0.41123594  0.75000000  0.65638174  1
  F  F7  1  0.08876406  0.25000000  0.15638174  1
  F  F8  1  0.50000000  0.66123594  0.09361826  1
  F  F9  1  0.00000000  0.33876406  0.59361826  1
  F  F10  1  0.58876406  0.25000000  0.34361826  1
  F  F11  1  0.91123594  0.75000000  0.84361826  1
  F  F12  1  0.00000000  0.66123594  0.40638174  1
  F  F13  1  0.50000000  0.33876406  0.90638174  1
  F  F14  1  0.91123594  0.25000000  0.15638174  1
  F  F15  1  0.58876406  0.75000000  0.65638174  1
  F  F16  1  0.24267921  0.22575952  0.93897516  1
  F  F17  1  0.25732079  -0.22575952  1.43897516  1
  F  F18  1  0.02424048  0.99267921  1.18897516  1
  F  F19  1  0.47575952  0.00732079  1.68897516  1
  F  F20  1  0.25732079  0.22575952  -0.43897516  1
  F  F21  1  0.24267921  -0.22575952  -0.93897516  1
  F  F22  1  0.47575952  0.99267921  -0.68897516  1
  F  F23  1  0.02424048  0.00732079  -0.18897516  1
  F  F24  1  -0.24267921  -0.22575952  -0.93897516  1
  F  F25  1  0.74267921  0.22575952  -0.43897516  1
  F  F26  1  0.97575952  0.00732079  -0.18897516  1
  F  F27  1  0.52424048  0.99267921  -0.68897516  1
  F  F28  1  0.74267921  -0.22575952  1.43897516  1
  F  F29  1  -0.24267921  0.22575952  0.93897516  1
  F  F30  1  0.52424048  0.00732079  1.68897516  1
  F  F31  1  0.97575952  0.99267921  1.18897516  1
  F  F32  1  0.74267921  0.72575952  1.43897516  1
  F  F33  1  0.75732079  0.27424048  1.93897516  1
  F  F34  1  0.52424048  1.49267921  1.68897516  1
  F  F35  1  0.97575952  0.50732079  2.18897516  1
  F  F36  1  0.75732079  0.72575952  0.06102484  1
  F  F37  1  0.74267921  0.27424048  -0.43897516  1
  F  F38  1  0.97575952  1.49267921  -0.18897516  1
  F  F39  1  0.52424048  0.50732079  0.31102484  1
  F  F40  1  0.25732079  0.27424048  -0.43897516  1
  F  F41  1  1.24267921  0.72575952  0.06102484  1
  F  F42  1  1.47575952  0.50732079  0.31102484  1
  F  F43  1  1.02424048  1.49267921  -0.18897516  1
  F  F44  1  1.24267921  0.27424048  1.93897516  1
  F  F45  1  0.25732079  0.72575952  1.43897516  1
  F  F46  1  1.02424048  0.50732079  2.18897516  1
  F  F47  1  1.47575952  1.49267921  1.68897516  1
  Li  Li48  1  0.00000000  0.00000000  0.00000000  1
  Li  Li49  1  0.50000000  0.00000000  0.50000000  1
  Li  Li50  1  0.25000000  0.75000000  0.25000000  1
  Li  Li51  1  0.25000000  0.25000000  0.75000000  1
  Li  Li52  1  0.50000000  0.50000000  0.50000000  1
  Li  Li53  1  0.00000000  0.50000000  0.00000000  1
  Li  Li54  1  0.75000000  0.25000000  0.75000000  1
  Li  Li55  1  0.75000000  0.75000000  0.25000000  1
  Si  Si56  1  0.89887612  0.00000000  0.00000000  1
  Si  Si57  1  0.60112388  0.00000000  0.50000000  1
  Si  Si58  1  0.25000000  0.64887612  0.25000000  1
  Si  Si59  1  0.25000000  0.35112388  0.75000000  1
  Si  Si60  1  0.10112388  0.00000000  0.00000000  1
  Si  Si61  1  0.39887612  0.00000000  0.50000000  1
  Si  Si62  1  0.75000000  0.35112388  0.75000000  1
  Si  Si63  1  0.75000000  0.64887612  0.25000000  1
  Si  Si64  1  0.39887612  0.50000000  0.50000000  1
  Si  Si65  1  0.10112388  0.50000000  -0.00000000  1
  Si  Si66  1  0.75000000  0.14887612  0.75000000  1
  Si  Si67  1  0.75000000  0.85112388  0.25000000  1
  Si  Si68  1  0.60112388  0.50000000  0.50000000  1
  Si  Si69  1  0.89887612  0.50000000  -0.00000000  1
  Si  Si70  1  0.25000000  0.85112388  0.25000000  1
  Si  Si71  1  0.25000000  0.14887612  0.75000000  1
  Te  Te72  1  0.00000000  0.00000000  0.50000000  1
  Te  Te73  1  0.50000000  0.00000000  0.00000000  1
  Te  Te74  1  0.25000000  0.75000000  0.75000000  1
  Te  Te75  1  0.25000000  0.25000000  0.25000000  1
  Te  Te76  1  0.50000000  0.50000000  0.00000000  1
  Te  Te77  1  0.00000000  0.50000000  0.50000000  1
  Te  Te78  1  0.75000000  0.25000000  0.25000000  1
  Te  Te79  1  0.75000000  0.75000000  0.75000000  1
  Te  Te80  1  0.00000000  0.25000000  0.37500000  1
  Te  Te81  1  0.00000000  0.75000000  0.62500000  1
  Te  Te82  1  0.50000000  0.75000000  0.87500000  1
  Te  Te83  1  0.50000000  0.25000000  0.12500000  1
