# generated using pymatgen
data_LiF
_symmetry_space_group_name_H-M   'P 1'
_cell_length_a   7.02867664
_cell_length_b   10.00079204
_cell_length_c   6.23145101
_cell_angle_alpha   90.00000000
_cell_angle_beta   90.00000000
_cell_angle_gamma   90.00000000
_symmetry_Int_Tables_number   1
_chemical_formula_structural   LiF
_chemical_formula_sum   'Li22 F22'
_cell_volume   438.02323215
_cell_formula_units_Z   22
loop_
 _symmetry_equiv_pos_site_id
 _symmetry_equiv_pos_as_xyz
  1  'x, y, z'
loop_
 _atom_site_type_symbol
 _atom_site_label
 _atom_site_symmetry_multiplicity
 _atom_site_fract_x
 _atom_site_fract_y
 _atom_site_fract_z
 _atom_site_occupancy
  F  F0  1  0.00000000  0.50000000  0.00000000  1
  F  F1  1  0.50000000  0.00000000  0.00000000  1
  F  F2  1  0.33755645  0.82443572  0.57019845  1
  F  F3  1  0.66244355  0.17556428  0.57019845  1
  F  F4  1  0.16244355  0.32443572  0.42980155  1
  F  F5  1  0.83755645  0.67556428  0.42980155  1
  F  F6  1  0.66244355  0.17556428  0.42980155  1
  F  F7  1  0.33755645  0.82443572  0.42980155  1
  F  F8  1  0.83755645  0.67556428  0.57019845  1
  F  F9  1  0.16244355  0.32443572  0.57019845  1
  F  F10  1  0.32126749  0.43865984  0.16489404  1
  F  F11  1  0.67873251  0.56134016  0.16489404  1
  F  F12  1  0.17873251  0.93865984  0.83510596  1
  F  F13  1  0.82126749  0.06134016  0.83510596  1
  F  F14  1  0.67873251  0.56134016  0.83510596  1
  F  F15  1  0.32126749  0.43865984  0.83510596  1
  F  F16  1  0.82126749  0.06134016  0.16489404  1
  F  F17  1  0.17873251  0.93865984  0.16489404  1
  F  F18  1  0.12989731  0.79194244  0.00000000  1
  F  F19  1  0.87010269  0.20805756  0.00000000  1
  F  F20  1  0.37010269  0.29194244  0.00000000  1
  F  F21  1  0.62989731  0.70805756  0.00000000  1
  Li  Li22  1  0.18974840  0.84338869  0.87014702  1
  Li  Li23  1  -0.18974840  -0.84338869  0.87014702  1
  Li  Li24  1  0.31025160  1.34338869  -0.87014702  1
  Li  Li25  1  0.68974840  -0.34338869  -0.87014702  1
  Li  Li26  1  -0.18974840  -0.84338869  -0.87014702  1
  Li  Li27  1  0.18974840  0.84338869  -0.87014702  1
  Li  Li28  1  0.68974840  -0.34338869  0.87014702  1
  Li  Li29  1  0.31025160  1.34338869  0.87014702  1
  Li  Li30  1  0.40720130  0.52101833  0.50000000  1
  Li  Li31  1  0.59279870  0.47898167  0.50000000  1
  Li  Li32  1  0.09279870  0.02101833  0.50000000  1
  Li  Li33  1  0.90720130  0.97898167  0.50000000  1
  Li  Li34  1  0.00000000  0.50000000  0.82379217  1
  Li  Li35  1  0.50000000  0.00000000  0.17620783  1
  Li  Li36  1  0.00000000  0.50000000  0.17620783  1
  Li  Li37  1  0.50000000  0.00000000  0.82379217  1
  Li  Li38  1  0.54058570  0.18523562  -0.00000000  1
  Li  Li39  1  0.45941430  0.81476438  0.00000000  1
  Li  Li40  1  0.95941430  0.68523562  -0.00000000  1
  Li  Li41  1  0.04058570  0.31476438  0.00000000  1
  Li  Li42  1  0.00000000  0.50000000  0.50000000  1
  Li  Li43  1  0.50000000  0.00000000  0.50000000  1
