# generated using pymatgen
data_LiCaF3
_symmetry_space_group_name_H-M   'P 1'
_cell_length_a   13.55423209
_cell_length_b   15.04226373
_cell_length_c   9.40604066
_cell_angle_alpha   90.00000000
_cell_angle_beta   90.00000000
_cell_angle_gamma   90.00000000
_symmetry_Int_Tables_number   1
_chemical_formula_structural   LiCaF3
_chemical_formula_sum   'Li18 Ca18 F54'
_cell_volume   1917.76314445
_cell_formula_units_Z   18
loop_
 _symmetry_equiv_pos_site_id
 _symmetry_equiv_pos_as_xyz
  1  'x, y, z'
loop_
 _atom_site_type_symbol
 _atom_site_label
 _atom_site_symmetry_multiplicity
 _atom_site_fract_x
 _atom_site_fract_y
 _atom_site_fract_z
 _atom_site_occupancy
  Ca  Ca0  1  0.44975694  0.31906513  0.27761050  1
  Ca  Ca1  1  -0.44975694  -0.31906513  0.27761050  1
  Ca  Ca2  1  0.05024306  0.81906513  -0.27761050  1
  Ca  Ca3  1  0.94975694  0.18093487  -0.27761050  1
  Ca  Ca4  1  -0.44975694  -0.31906513  -0.27761050  1
  Ca  Ca5  1  0.44975694  0.31906513  -0.27761050  1
  Ca  Ca6  1  0.94975694  0.18093487  0.27761050  1
  Ca  Ca7  1  0.05024306  0.81906513  0.27761050  1
  Ca  Ca8  1  0.32925407  0.59947572  0.50000000  1
  Ca  Ca9  1  0.67074593  0.40052428  0.50000000  1
  Ca  Ca10  1  0.17074593  0.09947572  0.50000000  1
  Ca  Ca11  1  0.82925407  0.90052428  0.50000000  1
  Ca  Ca12  1  0.00000000  0.00000000  0.50000000  1
  Ca  Ca13  1  0.50000000  0.50000000  0.50000000  1
  Ca  Ca14  1  0.00000000  0.50000000  0.88750789  1
  Ca  Ca15  1  0.50000000  0.00000000  0.11249211  1
  Ca  Ca16  1  0.00000000  0.50000000  0.11249211  1
  Ca  Ca17  1  0.50000000  0.00000000  0.88750789  1
  F  F18  1  0.99533232  0.07432474  0.87783096  1
  F  F19  1  0.00466768  0.92567526  0.87783096  1
  F  F20  1  0.50466768  0.57432474  0.12216904  1
  F  F21  1  0.49533232  0.42567526  0.12216904  1
  F  F22  1  0.00466768  0.92567526  0.12216904  1
  F  F23  1  0.99533232  0.07432474  0.12216904  1
  F  F24  1  0.49533232  0.42567526  0.87783096  1
  F  F25  1  0.50466768  0.57432474  0.87783096  1
  F  F26  1  0.45804911  0.41161709  0.24559668  1
  F  F27  1  0.54195089  0.58838291  0.24559668  1
  F  F28  1  0.04195089  0.91161709  0.75440332  1
  F  F29  1  0.95804911  0.08838291  0.75440332  1
  F  F30  1  0.54195089  0.58838291  0.75440332  1
  F  F31  1  0.45804911  0.41161709  0.75440332  1
  F  F32  1  0.95804911  0.08838291  0.24559668  1
  F  F33  1  0.04195089  0.91161709  0.24559668  1
  F  F34  1  0.48866875  0.79664220  0.00000000  1
  F  F35  1  0.51133125  0.20335780  0.00000000  1
  F  F36  1  0.01133125  0.29664220  -0.00000000  1
  F  F37  1  0.98866875  0.70335780  0.00000000  1
  F  F38  1  0.25179767  0.40633306  0.90538601  1
  F  F39  1  0.74820233  0.59366694  0.90538601  1
  F  F40  1  0.24820233  0.90633306  0.09461399  1
  F  F41  1  0.75179767  0.09366694  0.09461399  1
  F  F42  1  0.74820233  0.59366694  0.09461399  1
  F  F43  1  0.25179767  0.40633306  0.09461399  1
  F  F44  1  0.75179767  0.09366694  0.90538601  1
  F  F45  1  0.24820233  0.90633306  0.90538601  1
  F  F46  1  0.32132511  0.85904699  0.72230222  1
  F  F47  1  0.67867489  0.14095301  0.72230222  1
  F  F48  1  0.17867489  0.35904699  0.27769778  1
  F  F49  1  0.82132511  0.64095301  0.27769778  1
  F  F50  1  0.67867489  0.14095301  0.27769778  1
  F  F51  1  0.32132511  0.85904699  0.27769778  1
  F  F52  1  0.82132511  0.64095301  0.72230222  1
  F  F53  1  0.17867489  0.35904699  0.72230222  1
  F  F54  1  0.00000000  0.00000000  0.00000000  1
  F  F55  1  0.50000000  0.50000000  0.00000000  1
  F  F56  1  0.08138140  0.08313327  0.00000000  1
  F  F57  1  0.91861860  0.91686673  0.00000000  1
  F  F58  1  0.41861860  0.58313327  0.00000000  1
  F  F59  1  0.58138140  0.41686673  -0.00000000  1
  F  F60  1  0.03675308  0.59744651  0.00000000  1
  F  F61  1  0.96324692  0.40255349  -0.00000000  1
  F  F62  1  0.46324692  0.09744651  0.00000000  1
  F  F63  1  0.53675308  0.90255349  0.00000000  1
  F  F64  1  0.00135313  0.33654681  0.74010647  1
  F  F65  1  0.99864687  0.66345319  0.74010647  1
  F  F66  1  0.49864687  0.83654681  0.25989353  1
  F  F67  1  0.50135313  0.16345319  0.25989353  1
  F  F68  1  0.99864687  0.66345319  0.25989353  1
  F  F69  1  0.00135313  0.33654681  0.25989353  1
  F  F70  1  0.50135313  0.16345319  0.74010647  1
  F  F71  1  0.49864687  0.83654681  0.74010647  1
  Li  Li72  1  0.17414009  0.45733275  0.19496169  1
  Li  Li73  1  0.82585991  0.54266725  0.19496169  1
  Li  Li74  1  0.32585991  0.95733275  0.80503831  1
  Li  Li75  1  0.67414009  0.04266725  0.80503831  1
  Li  Li76  1  0.82585991  0.54266725  0.80503831  1
  Li  Li77  1  0.17414009  0.45733275  0.80503831  1
  Li  Li78  1  0.67414009  0.04266725  0.19496169  1
  Li  Li79  1  0.32585991  0.95733275  0.19496169  1
  Li  Li80  1  0.38532923  0.51406023  0.60770886  1
  Li  Li81  1  0.61467077  0.48593977  0.60770886  1
  Li  Li82  1  0.11467077  0.01406023  0.39229114  1
  Li  Li83  1  0.88532923  0.98593977  0.39229114  1
  Li  Li84  1  0.61467077  0.48593977  0.39229114  1
  Li  Li85  1  0.38532923  0.51406023  0.39229114  1
  Li  Li86  1  0.88532923  0.98593977  0.60770886  1
  Li  Li87  1  0.11467077  0.01406023  0.60770886  1
  Li  Li88  1  0.00000000  0.50000000  0.50000000  1
  Li  Li89  1  0.50000000  0.00000000  0.50000000  1
