# generated using pymatgen
data_LiF
_symmetry_space_group_name_H-M   'P 1'
_cell_length_a   12.61888718
_cell_length_b   5.20016601
_cell_length_c   7.28975752
_cell_angle_alpha   90.00000000
_cell_angle_beta   90.00000000
_cell_angle_gamma   90.00000000
_symmetry_Int_Tables_number   1
_chemical_formula_structural   LiF
_chemical_formula_sum   'Li24 F24'
_cell_volume   478.35613484
_cell_formula_units_Z   24
loop_
 _symmetry_equiv_pos_site_id
 _symmetry_equiv_pos_as_xyz
  1  'x, y, z'
loop_
 _atom_site_type_symbol
 _atom_site_label
 _atom_site_symmetry_multiplicity
 _atom_site_fract_x
 _atom_site_fract_y
 _atom_site_fract_z
 _atom_site_occupancy
  F  F0  1  0.00000000  0.50000000  0.00000000  1
  F  F1  1  0.50000000  0.00000000  -0.00000000  1
  F  F2  1  0.00576240  0.18684131  0.50000000  1
  F  F3  1  0.99423760  0.81315869  0.50000000  1
  F  F4  1  0.49423760  0.68684131  0.50000000  1
  F  F5  1  0.50576240  0.31315869  0.50000000  1
  F  F6  1  0.51566421  0.36679889  0.00000000  1
  F  F7  1  0.48433579  0.63320111  0.00000000  1
  F  F8  1  0.98433579  0.86679889  -0.00000000  1
  F  F9  1  0.01566421  0.13320111  0.00000000  1
  F  F10  1  0.22659342  0.75806495  0.74652653  1
  F  F11  1  -0.22659342  -0.75806495  0.74652653  1
  F  F12  1  0.27340658  1.25806495  -0.74652653  1
  F  F13  1  0.72659342  -0.25806495  -0.74652653  1
  F  F14  1  -0.22659342  -0.75806495  -0.74652653  1
  F  F15  1  0.22659342  0.75806495  -0.74652653  1
  F  F16  1  0.72659342  -0.25806495  0.74652653  1
  F  F17  1  0.27340658  1.25806495  0.74652653  1
  F  F18  1  0.36802263  0.75775163  0.00000000  1
  F  F19  1  0.63197737  0.24224837  0.00000000  1
  F  F20  1  0.13197737  0.25775163  0.00000000  1
  F  F21  1  0.86802263  0.74224837  0.00000000  1
  F  F22  1  0.00000000  0.00000000  0.00000000  1
  F  F23  1  0.50000000  0.50000000  0.00000000  1
  Li  Li24  1  0.20577716  0.28361467  0.35249555  1
  Li  Li25  1  0.79422284  0.71638533  0.35249555  1
  Li  Li26  1  0.29422284  0.78361467  0.64750445  1
  Li  Li27  1  0.70577716  0.21638533  0.64750445  1
  Li  Li28  1  0.79422284  0.71638533  0.64750445  1
  Li  Li29  1  0.20577716  0.28361467  0.64750445  1
  Li  Li30  1  0.70577716  0.21638533  0.35249555  1
  Li  Li31  1  0.29422284  0.78361467  0.35249555  1
  Li  Li32  1  0.90940225  0.91515843  0.29414494  1
  Li  Li33  1  0.09059775  0.08484157  0.29414494  1
  Li  Li34  1  0.59059775  0.41515843  0.70585506  1
  Li  Li35  1  0.40940225  0.58484157  0.70585506  1
  Li  Li36  1  0.09059775  0.08484157  0.70585506  1
  Li  Li37  1  0.90940225  0.91515843  0.70585506  1
  Li  Li38  1  0.40940225  0.58484157  0.29414494  1
  Li  Li39  1  0.59059775  0.41515843  0.29414494  1
  Li  Li40  1  0.06559907  0.75919827  0.00000000  1
  Li  Li41  1  0.93440093  0.24080173  0.00000000  1
  Li  Li42  1  0.43440093  0.25919827  0.00000000  1
  Li  Li43  1  0.56559907  0.74080173  -0.00000000  1
  Li  Li44  1  0.71706767  0.70230962  0.00000000  1
  Li  Li45  1  0.28293233  0.29769038  0.00000000  1
  Li  Li46  1  0.78293233  0.20230962  -0.00000000  1
  Li  Li47  1  0.21706767  0.79769038  0.00000000  1
