# generated using pymatgen
data_LiF
_symmetry_space_group_name_H-M   'P 1'
_cell_length_a   8.35006479
_cell_length_b   3.77715018
_cell_length_c   10.23182944
_cell_angle_alpha   90.00000000
_cell_angle_beta   90.00000000
_cell_angle_gamma   90.00000000
_symmetry_Int_Tables_number   1
_chemical_formula_structural   LiF
_chemical_formula_sum   'Li24 F24'
_cell_volume   322.70626013
_cell_formula_units_Z   24
loop_
 _symmetry_equiv_pos_site_id
 _symmetry_equiv_pos_as_xyz
  1  'x, y, z'
loop_
 _atom_site_type_symbol
 _atom_site_label
 _atom_site_symmetry_multiplicity
 _atom_site_fract_x
 _atom_site_fract_y
 _atom_site_fract_z
 _atom_site_occupancy
  F  F0  1  0.12558353  0.86826068  0.75896574  1
  F  F1  1  -0.12558353  -0.86826068  0.75896574  1
  F  F2  1  0.37441647  1.36826068  -0.75896574  1
  F  F3  1  0.62558353  -0.36826068  -0.75896574  1
  F  F4  1  -0.12558353  -0.86826068  -0.75896574  1
  F  F5  1  0.12558353  0.86826068  -0.75896574  1
  F  F6  1  0.62558353  -0.36826068  0.75896574  1
  F  F7  1  0.37441647  1.36826068  0.75896574  1
  F  F8  1  0.45560114  0.18118220  0.87349348  1
  F  F9  1  0.54439886  0.81881780  0.87349348  1
  F  F10  1  0.04439886  0.68118220  0.12650652  1
  F  F11  1  0.95560114  0.31881780  0.12650652  1
  F  F12  1  0.54439886  0.81881780  0.12650652  1
  F  F13  1  0.45560114  0.18118220  0.12650652  1
  F  F14  1  0.95560114  0.31881780  0.87349348  1
  F  F15  1  0.04439886  0.68118220  0.87349348  1
  F  F16  1  0.00000000  0.50000000  0.50000000  1
  F  F17  1  0.50000000  0.00000000  0.50000000  1
  F  F18  1  0.01880765  0.10690274  0.50000000  1
  F  F19  1  0.98119235  0.89309726  0.50000000  1
  F  F20  1  0.48119235  0.60690274  0.50000000  1
  F  F21  1  0.51880765  0.39309726  0.50000000  1
  F  F22  1  0.00000000  0.00000000  0.00000000  1
  F  F23  1  0.50000000  0.50000000  0.00000000  1
  Li  Li24  1  0.56373607  0.31950310  0.90123674  1
  Li  Li25  1  0.43626393  0.68049690  0.90123674  1
  Li  Li26  1  0.93626393  0.81950310  0.09876326  1
  Li  Li27  1  0.06373607  0.18049690  0.09876326  1
  Li  Li28  1  0.43626393  0.68049690  0.09876326  1
  Li  Li29  1  0.56373607  0.31950310  0.09876326  1
  Li  Li30  1  0.06373607  0.18049690  0.90123674  1
  Li  Li31  1  0.93626393  0.81950310  0.90123674  1
  Li  Li32  1  0.24990054  0.15763887  0.50000000  1
  Li  Li33  1  0.75009946  0.84236113  0.50000000  1
  Li  Li34  1  0.25009946  0.65763887  0.50000000  1
  Li  Li35  1  0.74990054  0.34236113  0.50000000  1
  Li  Li36  1  0.73119379  0.52861601  0.34391231  1
  Li  Li37  1  0.26880621  0.47138399  0.34391231  1
  Li  Li38  1  0.76880621  0.02861601  0.65608769  1
  Li  Li39  1  0.23119379  0.97138399  0.65608769  1
  Li  Li40  1  0.26880621  0.47138399  0.65608769  1
  Li  Li41  1  0.73119379  0.52861601  0.65608769  1
  Li  Li42  1  0.23119379  0.97138399  0.34391231  1
  Li  Li43  1  0.76880621  0.02861601  0.34391231  1
  Li  Li44  1  0.00000000  0.50000000  0.37177875  1
  Li  Li45  1  0.50000000  0.00000000  0.62822125  1
  Li  Li46  1  0.00000000  0.50000000  0.62822125  1
  Li  Li47  1  0.50000000  0.00000000  0.37177875  1
