# generated using pymatgen
data_LiF
_symmetry_space_group_name_H-M   'P 1'
_cell_length_a   15.44534270
_cell_length_b   7.82077896
_cell_length_c   5.52401663
_cell_angle_alpha   90.00000000
_cell_angle_beta   90.00000000
_cell_angle_gamma   90.00000000
_symmetry_Int_Tables_number   1
_chemical_formula_structural   LiF
_chemical_formula_sum   'Li28 F28'
_cell_volume   667.27144153
_cell_formula_units_Z   28
loop_
 _symmetry_equiv_pos_site_id
 _symmetry_equiv_pos_as_xyz
  1  'x, y, z'
loop_
 _atom_site_type_symbol
 _atom_site_label
 _atom_site_symmetry_multiplicity
 _atom_site_fract_x
 _atom_site_fract_y
 _atom_site_fract_z
 _atom_site_occupancy
  F  F0  1  0.38257598  0.58460617  0.09913901  1
  F  F1  1  0.11742402  0.41539383  0.59913901  1
  F  F2  1  0.61742402  0.08460617  0.90086099  1
  F  F3  1  0.88257598  0.91539383  0.40086099  1
  F  F4  1  0.61742402  0.41539383  0.90086099  1
  F  F5  1  0.88257598  0.58460617  0.40086099  1
  F  F6  1  0.38257598  0.91539383  0.09913901  1
  F  F7  1  0.11742402  0.08460617  0.59913901  1
  F  F8  1  0.88649658  0.25000000  0.58517711  1
  F  F9  1  0.61350342  0.75000000  0.08517711  1
  F  F10  1  0.11350342  0.75000000  0.41482289  1
  F  F11  1  0.38649658  0.25000000  0.91482289  1
  F  F12  1  0.08556568  0.69216296  0.76947138  1
  F  F13  1  0.41443432  0.30783704  0.26947138  1
  F  F14  1  0.91443432  0.19216296  0.23052862  1
  F  F15  1  0.58556568  0.80783704  0.73052862  1
  F  F16  1  0.91443432  0.30783704  0.23052862  1
  F  F17  1  0.58556568  0.69216296  0.73052862  1
  F  F18  1  0.08556568  0.80783704  0.76947138  1
  F  F19  1  0.41443432  0.19216296  0.26947138  1
  F  F20  1  0.30952037  0.95744556  0.57436221  1
  F  F21  1  0.19047963  0.04255444  0.07436221  1
  F  F22  1  0.69047963  0.45744556  0.42563779  1
  F  F23  1  0.80952037  0.54255444  0.92563779  1
  F  F24  1  0.69047963  0.04255444  0.42563779  1
  F  F25  1  0.80952037  0.95744556  0.92563779  1
  F  F26  1  0.30952037  0.54255444  0.57436221  1
  F  F27  1  0.19047963  0.45744556  0.07436221  1
  Li  Li28  1  0.00000000  0.00000000  0.50000000  1
  Li  Li29  1  0.50000000  0.00000000  0.00000000  1
  Li  Li30  1  0.00000000  0.50000000  0.50000000  1
  Li  Li31  1  0.50000000  0.50000000  0.00000000  1
  Li  Li32  1  0.24944099  0.05303422  0.43779551  1
  Li  Li33  1  0.25055901  -0.05303422  0.93779551  1
  Li  Li34  1  -0.24944099  0.55303422  -0.43779551  1
  Li  Li35  1  0.74944099  0.44696578  0.06220449  1
  Li  Li36  1  -0.24944099  -0.05303422  -0.43779551  1
  Li  Li37  1  0.74944099  0.05303422  0.06220449  1
  Li  Li38  1  0.24944099  0.44696578  0.43779551  1
  Li  Li39  1  0.25055901  0.55303422  0.93779551  1
  Li  Li40  1  0.00000000  0.00000000  0.00000000  1
  Li  Li41  1  0.50000000  0.00000000  0.50000000  1
  Li  Li42  1  0.00000000  0.50000000  0.00000000  1
  Li  Li43  1  0.50000000  0.50000000  0.50000000  1
  Li  Li44  1  0.38937751  0.02014562  0.28281375  1
  Li  Li45  1  0.11062249  0.97985438  0.78281375  1
  Li  Li46  1  0.61062249  0.52014562  0.71718625  1
  Li  Li47  1  0.88937751  0.47985438  0.21718625  1
  Li  Li48  1  0.61062249  0.97985438  0.71718625  1
  Li  Li49  1  0.88937751  0.02014562  0.21718625  1
  Li  Li50  1  0.38937751  0.47985438  0.28281375  1
  Li  Li51  1  0.11062249  0.52014562  0.78281375  1
  Li  Li52  1  0.45919137  0.25000000  0.97422029  1
  Li  Li53  1  0.04080863  0.75000000  0.47422029  1
  Li  Li54  1  0.54080863  0.75000000  0.02577971  1
  Li  Li55  1  0.95919137  0.25000000  0.52577971  1
