# generated using pymatgen
data_LiF
_symmetry_space_group_name_H-M   'P 1'
_cell_length_a   5.16149262
_cell_length_b   7.27726632
_cell_length_c   9.90169129
_cell_angle_alpha   90.00000000
_cell_angle_beta   90.00000000
_cell_angle_gamma   90.00000000
_symmetry_Int_Tables_number   1
_chemical_formula_structural   LiF
_chemical_formula_sum   'Li16 F16'
_cell_volume   371.92293610
_cell_formula_units_Z   16
loop_
 _symmetry_equiv_pos_site_id
 _symmetry_equiv_pos_as_xyz
  1  'x, y, z'
loop_
 _atom_site_type_symbol
 _atom_site_label
 _atom_site_symmetry_multiplicity
 _atom_site_fract_x
 _atom_site_fract_y
 _atom_site_fract_z
 _atom_site_occupancy
  F  F0  1  0.92007153  0.64324345  0.20033431  1
  F  F1  1  0.57992847  0.35675655  0.70033431  1
  F  F2  1  0.07992847  0.14324345  0.79966569  1
  F  F3  1  0.42007153  0.85675655  0.29966569  1
  F  F4  1  0.07992847  0.35675655  0.79966569  1
  F  F5  1  0.42007153  0.64324345  0.29966569  1
  F  F6  1  0.92007153  0.85675655  0.20033431  1
  F  F7  1  0.57992847  0.14324345  0.70033431  1
  F  F8  1  0.86120550  0.37142325  0.43230035  1
  F  F9  1  0.63879450  0.62857675  0.93230035  1
  F  F10  1  0.13879450  0.87142325  0.56769965  1
  F  F11  1  0.36120550  0.12857675  0.06769965  1
  F  F12  1  0.13879450  0.62857675  0.56769965  1
  F  F13  1  0.36120550  0.37142325  0.06769965  1
  F  F14  1  0.86120550  0.12857675  0.43230035  1
  F  F15  1  0.63879450  0.87142325  0.93230035  1
  Li  Li16  1  0.61315665  0.92120532  0.57655513  1
  Li  Li17  1  -0.11315665  -0.92120532  1.07655513  1
  Li  Li18  1  -0.61315665  1.42120532  -0.57655513  1
  Li  Li19  1  1.11315665  -0.42120532  -0.07655513  1
  Li  Li20  1  -0.61315665  -0.92120532  -0.57655513  1
  Li  Li21  1  1.11315665  0.92120532  -0.07655513  1
  Li  Li22  1  0.61315665  -0.42120532  0.57655513  1
  Li  Li23  1  -0.11315665  1.42120532  1.07655513  1
  Li  Li24  1  0.56307135  0.01327344  0.14501441  1
  Li  Li25  1  0.93692865  0.98672656  0.64501441  1
  Li  Li26  1  0.43692865  0.51327344  0.85498559  1
  Li  Li27  1  0.06307135  0.48672656  0.35498559  1
  Li  Li28  1  0.43692865  0.98672656  0.85498559  1
  Li  Li29  1  0.06307135  0.01327344  0.35498559  1
  Li  Li30  1  0.56307135  0.48672656  0.14501441  1
  Li  Li31  1  0.93692865  0.51327344  0.64501441  1
