# generated using pymatgen
data_Li2Y2MoP3Se2
_symmetry_space_group_name_H-M   'P 1'
_cell_length_a   6.13544673
_cell_length_b   6.41928599
_cell_length_c   7.51433385
_cell_angle_alpha   92.78485051
_cell_angle_beta   96.06482544
_cell_angle_gamma   101.18563766
_symmetry_Int_Tables_number   1
_chemical_formula_structural   Li2Y2MoP3Se2
_chemical_formula_sum   'Li2 Y2 Mo1 P3 Se2'
_cell_volume   287.98165795
_cell_formula_units_Z   1
loop_
 _symmetry_equiv_pos_site_id
 _symmetry_equiv_pos_as_xyz
  1  'x, y, z'
loop_
 _atom_site_type_symbol
 _atom_site_label
 _atom_site_symmetry_multiplicity
 _atom_site_fract_x
 _atom_site_fract_y
 _atom_site_fract_z
 _atom_site_occupancy
  Se  Se0  1  0.00000000  0.00000000  0.00000000  1
  Se  Se1  1  0.50000000  0.50000000  0.50000000  1
  Y  Y2  1  0.50000000  0.50000000  0.00000000  1
  Y  Y3  1  0.50000000  0.00000000  0.50000000  1
  P  P4  1  0.00000000  0.50000000  0.50000000  1
  P  P5  1  0.38689774  0.94552430  0.27454886  1
  P  P6  1  0.01475310  0.80702261  0.97892832  1
  Mo  Mo7  1  0.87330015  0.47918161  0.76942257  1
  Li  Li8  1  0.09143430  0.73167530  0.10759268  1
  Li  Li9  1  0.35778244  0.51114357  0.85834238  1
