# generated using pymatgen
data_LiF
_symmetry_space_group_name_H-M   'P 1'
_cell_length_a   15.24694530
_cell_length_b   4.82666114
_cell_length_c   7.15140423
_cell_angle_alpha   90.00000000
_cell_angle_beta   90.00000000
_cell_angle_gamma   90.00000000
_symmetry_Int_Tables_number   1
_chemical_formula_structural   LiF
_chemical_formula_sum   'Li22 F22'
_cell_volume   526.28498494
_cell_formula_units_Z   22
loop_
 _symmetry_equiv_pos_site_id
 _symmetry_equiv_pos_as_xyz
  1  'x, y, z'
loop_
 _atom_site_type_symbol
 _atom_site_label
 _atom_site_symmetry_multiplicity
 _atom_site_fract_x
 _atom_site_fract_y
 _atom_site_fract_z
 _atom_site_occupancy
  F  F0  1  0.99068028  0.59039786  0.31828942  1
  F  F1  1  0.00931972  0.40960214  0.31828942  1
  F  F2  1  0.50931972  0.09039786  0.68171058  1
  F  F3  1  0.49068028  0.90960214  0.68171058  1
  F  F4  1  0.00931972  0.40960214  0.68171058  1
  F  F5  1  0.99068028  0.59039786  0.68171058  1
  F  F6  1  0.49068028  0.90960214  0.31828942  1
  F  F7  1  0.50931972  0.09039786  0.31828942  1
  F  F8  1  0.63008685  0.06908856  0.09804641  1
  F  F9  1  0.36991315  0.93091144  0.09804641  1
  F  F10  1  0.86991315  0.56908856  0.90195359  1
  F  F11  1  0.13008685  0.43091144  0.90195359  1
  F  F12  1  0.36991315  0.93091144  0.90195359  1
  F  F13  1  0.63008685  0.06908856  0.90195359  1
  F  F14  1  0.13008685  0.43091144  0.09804641  1
  F  F15  1  0.86991315  0.56908856  0.09804641  1
  F  F16  1  0.00000000  0.50000000  0.72974660  1
  F  F17  1  0.50000000  -0.00000000  0.27025340  1
  F  F18  1  0.00000000  0.50000000  0.27025340  1
  F  F19  1  0.50000000  -0.00000000  0.72974660  1
  F  F20  1  0.00000000  0.50000000  0.50000000  1
  F  F21  1  0.50000000  -0.00000000  0.50000000  1
  Li  Li22  1  0.27528963  0.04816021  -0.00000000  1
  Li  Li23  1  0.72471037  0.95183979  -0.00000000  1
  Li  Li24  1  0.22471037  0.54816021  0.00000000  1
  Li  Li25  1  0.77528963  0.45183979  0.00000000  1
  Li  Li26  1  0.23255591  0.95270718  0.81834182  1
  Li  Li27  1  -0.23255591  -0.95270718  0.81834182  1
  Li  Li28  1  0.26744409  1.45270718  -0.81834182  1
  Li  Li29  1  0.73255591  -0.45270718  -0.81834182  1
  Li  Li30  1  -0.23255591  -0.95270718  -0.81834182  1
  Li  Li31  1  0.23255591  0.95270718  -0.81834182  1
  Li  Li32  1  0.73255591  -0.45270718  0.81834182  1
  Li  Li33  1  0.26744409  1.45270718  0.81834182  1
  Li  Li34  1  0.00000000  0.50000000  -0.00000000  1
  Li  Li35  1  0.50000000  -0.00000000  0.00000000  1
  Li  Li36  1  0.00000000  0.00000000  0.50000000  1
  Li  Li37  1  0.50000000  0.50000000  0.50000000  1
  Li  Li38  1  0.00000000  0.00000000  0.00000000  1
  Li  Li39  1  0.50000000  0.50000000  -0.00000000  1
  Li  Li40  1  0.60794047  0.28301392  0.50000000  1
  Li  Li41  1  0.39205953  0.71698608  0.50000000  1
  Li  Li42  1  0.89205953  0.78301392  0.50000000  1
  Li  Li43  1  0.10794047  0.21698608  0.50000000  1
