# generated using pymatgen
data_LiF
_symmetry_space_group_name_H-M   'P 1'
_cell_length_a   7.85996398
_cell_length_b   7.85996398
_cell_length_c   13.03349780
_cell_angle_alpha   90.00000000
_cell_angle_beta   90.00000000
_cell_angle_gamma   120.00000000
_symmetry_Int_Tables_number   1
_chemical_formula_structural   LiF
_chemical_formula_sum   'Li25 F25'
_cell_volume   697.32097043
_cell_formula_units_Z   25
loop_
 _symmetry_equiv_pos_site_id
 _symmetry_equiv_pos_as_xyz
  1  'x, y, z'
loop_
 _atom_site_type_symbol
 _atom_site_label
 _atom_site_symmetry_multiplicity
 _atom_site_fract_x
 _atom_site_fract_y
 _atom_site_fract_z
 _atom_site_occupancy
  F  F0  1  0.38185558  0.19907454  0.15036983  1
  F  F1  1  -0.19907454  0.18278103  0.15036983  1
  F  F2  1  -0.18278103  -0.38185558  0.15036983  1
  F  F3  1  0.38185558  0.19907454  -0.15036983  1
  F  F4  1  -0.19907454  0.18278103  -0.15036983  1
  F  F5  1  -0.18278103  -0.38185558  -0.15036983  1
  F  F6  1  0.19907454  0.38185558  -0.15036983  1
  F  F7  1  0.18278103  -0.19907454  -0.15036983  1
  F  F8  1  -0.38185558  -0.18278103  -0.15036983  1
  F  F9  1  0.19907454  0.38185558  0.15036983  1
  F  F10  1  0.18278103  -0.19907454  0.15036983  1
  F  F11  1  -0.38185558  -0.18278103  0.15036983  1
  F  F12  1  0.33333333  0.66666667  0.83356093  1
  F  F13  1  0.33333333  0.66666667  0.16643907  1
  F  F14  1  0.66666667  0.33333333  0.16643907  1
  F  F15  1  0.66666667  0.33333333  0.83356093  1
  F  F16  1  0.50636029  -0.00000000  0.00000000  1
  F  F17  1  0.00000000  0.50636029  0.00000000  1
  F  F18  1  0.49363971  0.49363971  0.00000000  1
  F  F19  1  0.85414361  0.10320592  0.00000000  1
  F  F20  1  0.89679408  0.75093769  0.00000000  1
  F  F21  1  0.24906231  0.14585639  -0.00000000  1
  F  F22  1  0.10320592  0.85414361  0.00000000  1
  F  F23  1  0.75093769  0.89679408  0.00000000  1
  F  F24  1  0.14585639  0.24906231  0.00000000  1
  Li  Li25  1  0.38579707  0.26254717  0.00000000  1
  Li  Li26  1  0.73745283  0.12324990  -0.00000000  1
  Li  Li27  1  0.87675010  0.61420293  -0.00000000  1
  Li  Li28  1  0.26254717  0.38579707  0.00000000  1
  Li  Li29  1  0.12324990  0.73745283  0.00000000  1
  Li  Li30  1  0.61420293  0.87675010  -0.00000000  1
  Li  Li31  1  0.33333333  0.66666667  0.63230774  1
  Li  Li32  1  0.33333333  0.66666667  0.36769226  1
  Li  Li33  1  0.66666667  0.33333333  0.36769226  1
  Li  Li34  1  0.66666667  0.33333333  0.63230774  1
  Li  Li35  1  0.27342302  0.00000000  0.43212133  1
  Li  Li36  1  0.00000000  0.27342302  0.43212133  1
  Li  Li37  1  0.72657698  0.72657698  0.43212133  1
  Li  Li38  1  0.27342302  0.00000000  0.56787867  1
  Li  Li39  1  0.00000000  0.27342302  0.56787867  1
  Li  Li40  1  0.72657698  0.72657698  0.56787867  1
  Li  Li41  1  0.33333333  0.66666667  0.50000000  1
  Li  Li42  1  0.66666667  0.33333333  0.50000000  1
  Li  Li43  1  0.63908219  0.00000000  0.81153218  1
  Li  Li44  1  0.00000000  0.63908219  0.81153218  1
  Li  Li45  1  0.36091781  0.36091781  0.81153218  1
  Li  Li46  1  0.63908219  0.00000000  0.18846782  1
  Li  Li47  1  0.00000000  0.63908219  0.18846782  1
  Li  Li48  1  0.36091781  0.36091781  0.18846782  1
  Li  Li49  1  0.00000000  0.00000000  0.50000000  1
