# generated using pymatgen
data_LiF
_symmetry_space_group_name_H-M   'P 1'
_cell_length_a   5.67040410
_cell_length_b   5.67040410
_cell_length_c   32.93458941
_cell_angle_alpha   90.00000000
_cell_angle_beta   90.00000000
_cell_angle_gamma   120.00000000
_symmetry_Int_Tables_number   1
_chemical_formula_structural   LiF
_chemical_formula_sum   'Li32 F32'
_cell_volume   917.08777547
_cell_formula_units_Z   32
loop_
 _symmetry_equiv_pos_site_id
 _symmetry_equiv_pos_as_xyz
  1  'x, y, z'
loop_
 _atom_site_type_symbol
 _atom_site_label
 _atom_site_symmetry_multiplicity
 _atom_site_fract_x
 _atom_site_fract_y
 _atom_site_fract_z
 _atom_site_occupancy
  F  F0  1  0.55288366  0.71443027  0.05673536  1
  F  F1  1  0.28556973  0.83845340  0.05673536  1
  F  F2  1  0.16154660  0.44711634  0.05673536  1
  F  F3  1  0.28556973  0.44711634  0.94326464  1
  F  F4  1  0.16154660  0.71443027  0.94326464  1
  F  F5  1  0.55288366  0.83845340  0.94326464  1
  F  F6  1  0.34009249  0.42263362  0.45960341  1
  F  F7  1  0.57736638  0.91745887  0.45960341  1
  F  F8  1  0.08254113  0.65990751  0.45960341  1
  F  F9  1  0.57736638  0.65990751  0.54039659  1
  F  F10  1  0.08254113  0.42263362  0.54039659  1
  F  F11  1  0.34009249  0.91745887  0.54039659  1
  F  F12  1  0.52405824  0.15057505  0.29074199  1
  F  F13  1  0.84942495  0.37348319  0.29074199  1
  F  F14  1  0.62651681  0.47594176  0.29074199  1
  F  F15  1  0.84942495  0.47594176  0.70925801  1
  F  F16  1  0.62651681  0.15057505  0.70925801  1
  F  F17  1  0.52405824  0.37348319  0.70925801  1
  F  F18  1  0.75158883  0.50756810  0.11158469  1
  F  F19  1  0.49243190  0.24402073  0.11158469  1
  F  F20  1  0.75597927  0.24841117  0.11158469  1
  F  F21  1  0.49243190  0.24841117  0.88841531  1
  F  F22  1  0.75597927  0.50756810  0.88841531  1
  F  F23  1  0.75158883  0.24402073  0.88841531  1
  F  F24  1  0.66666667  0.33333333  0.50000000  1
  F  F25  1  0.66666667  0.33333333  0.91723622  1
  F  F26  1  0.66666667  0.33333333  0.08276378  1
  F  F27  1  0.18897199  0.81102801  0.00000000  1
  F  F28  1  0.18897199  0.37794398  -0.00000000  1
  F  F29  1  0.62205602  0.81102801  -0.00000000  1
  F  F30  1  0.66666667  0.33333333  0.17875334  1
  F  F31  1  0.66666667  0.33333333  0.82124666  1
  Li  Li32  1  0.69350215  0.05339525  0.54851755  1
  Li  Li33  1  -0.05339525  0.64010690  0.54851755  1
  Li  Li34  1  -0.64010690  -0.69350215  0.54851755  1
  Li  Li35  1  -0.05339525  -0.69350215  -0.54851755  1
  Li  Li36  1  -0.64010690  0.05339525  -0.54851755  1
  Li  Li37  1  0.69350215  0.64010690  -0.54851755  1
  Li  Li38  1  0.69350466  0.12638535  0.04302693  1
  Li  Li39  1  0.87361465  0.56711932  0.04302693  1
  Li  Li40  1  0.43288068  0.30649534  0.04302693  1
  Li  Li41  1  0.87361465  0.30649534  0.95697307  1
  Li  Li42  1  0.43288068  0.12638535  0.95697307  1
  Li  Li43  1  0.69350466  0.56711932  0.95697307  1
  Li  Li44  1  0.64892194  0.47376177  0.16444688  1
  Li  Li45  1  0.52623823  0.17516016  0.16444688  1
  Li  Li46  1  0.82483984  0.35107806  0.16444688  1
  Li  Li47  1  0.52623823  0.35107806  0.83555312  1
  Li  Li48  1  0.82483984  0.47376177  0.83555312  1
  Li  Li49  1  0.64892194  0.17516016  0.83555312  1
  Li  Li50  1  0.27598337  0.34927089  0.51438999  1
  Li  Li51  1  0.65072911  0.92671248  0.51438999  1
  Li  Li52  1  0.07328752  0.72401663  0.51438999  1
  Li  Li53  1  0.65072911  0.72401663  0.48561001  1
  Li  Li54  1  0.07328752  0.34927089  0.48561001  1
  Li  Li55  1  0.27598337  0.92671248  0.48561001  1
  Li  Li56  1  0.33333333  0.66666667  0.00000000  1
  Li  Li57  1  0.84367822  0.76215837  0.35901186  1
  Li  Li58  1  0.23784163  0.08151986  0.35901186  1
  Li  Li59  1  0.91848014  0.15632178  0.35901186  1
  Li  Li60  1  0.23784163  0.15632178  0.64098814  1
  Li  Li61  1  0.91848014  0.76215837  0.64098814  1
  Li  Li62  1  0.84367822  0.08151986  0.64098814  1
  Li  Li63  1  0.00000000  0.00000000  0.00000000  1
