# generated using pymatgen
data_LiF
_symmetry_space_group_name_H-M   'P 1'
_cell_length_a   8.28812501
_cell_length_b   9.26737547
_cell_length_c   6.75812328
_cell_angle_alpha   90.00000000
_cell_angle_beta   90.00000000
_cell_angle_gamma   90.00000000
_symmetry_Int_Tables_number   1
_chemical_formula_structural   LiF
_chemical_formula_sum   'Li18 F18'
_cell_volume   519.08581562
_cell_formula_units_Z   18
loop_
 _symmetry_equiv_pos_site_id
 _symmetry_equiv_pos_as_xyz
  1  'x, y, z'
loop_
 _atom_site_type_symbol
 _atom_site_label
 _atom_site_symmetry_multiplicity
 _atom_site_fract_x
 _atom_site_fract_y
 _atom_site_fract_z
 _atom_site_occupancy
  F  F0  1  0.96406877  0.29231825  0.12504118  1
  F  F1  1  -0.96406877  -0.29231825  0.12504118  1
  F  F2  1  -0.46406877  0.79231825  -0.12504118  1
  F  F3  1  1.46406877  0.20768175  -0.12504118  1
  F  F4  1  -0.96406877  -0.29231825  -0.12504118  1
  F  F5  1  0.96406877  0.29231825  -0.12504118  1
  F  F6  1  1.46406877  0.20768175  0.12504118  1
  F  F7  1  -0.46406877  0.79231825  0.12504118  1
  F  F8  1  0.00000000  0.00000000  0.00000000  1
  F  F9  1  0.50000000  0.50000000  0.00000000  1
  F  F10  1  0.79949482  0.82983909  0.16095352  1
  F  F11  1  0.20050518  0.17016091  0.16095352  1
  F  F12  1  0.70050518  0.32983909  0.83904648  1
  F  F13  1  0.29949482  0.67016091  0.83904648  1
  F  F14  1  0.20050518  0.17016091  0.83904648  1
  F  F15  1  0.79949482  0.82983909  0.83904648  1
  F  F16  1  0.29949482  0.67016091  0.16095352  1
  F  F17  1  0.70050518  0.32983909  0.16095352  1
  Li  Li18  1  0.74184294  0.54005782  0.37723339  1
  Li  Li19  1  0.25815706  0.45994218  0.37723339  1
  Li  Li20  1  0.75815706  0.04005782  0.62276661  1
  Li  Li21  1  0.24184294  0.95994218  0.62276661  1
  Li  Li22  1  0.25815706  0.45994218  0.62276661  1
  Li  Li23  1  0.74184294  0.54005782  0.62276661  1
  Li  Li24  1  0.24184294  0.95994218  0.37723339  1
  Li  Li25  1  0.75815706  0.04005782  0.37723339  1
  Li  Li26  1  0.70798962  0.70161224  0.67318550  1
  Li  Li27  1  0.29201038  0.29838776  0.67318550  1
  Li  Li28  1  0.79201038  0.20161224  0.32681450  1
  Li  Li29  1  0.20798962  0.79838776  0.32681450  1
  Li  Li30  1  0.29201038  0.29838776  0.32681450  1
  Li  Li31  1  0.70798962  0.70161224  0.32681450  1
  Li  Li32  1  0.20798962  0.79838776  0.67318550  1
  Li  Li33  1  0.79201038  0.20161224  0.67318550  1
  Li  Li34  1  0.00000000  0.00000000  0.50000000  1
  Li  Li35  1  0.50000000  0.50000000  0.50000000  1
