# generated using pymatgen
data_LiSb2Te4P2Se
_symmetry_space_group_name_H-M   'P 1'
_cell_length_a   4.89598537
_cell_length_b   5.08494308
_cell_length_c   6.86529181
_cell_angle_alpha   94.62249387
_cell_angle_beta   99.46738719
_cell_angle_gamma   107.58413052
_symmetry_Int_Tables_number   1
_chemical_formula_structural   LiSb2Te4P2Se
_chemical_formula_sum   'Li1 Sb2 Te4 P2 Se1'
_cell_volume   159.16144190
_cell_formula_units_Z   1
loop_
 _symmetry_equiv_pos_site_id
 _symmetry_equiv_pos_as_xyz
  1  'x, y, z'
loop_
 _atom_site_type_symbol
 _atom_site_label
 _atom_site_symmetry_multiplicity
 _atom_site_fract_x
 _atom_site_fract_y
 _atom_site_fract_z
 _atom_site_occupancy
  Se  Se0  1  0.12500000  0.00000000  0.25000000  1
  Te  Te1  1  0.00000000  0.00000000  0.00000000  1
  Te  Te2  1  0.37500000  0.00000000  0.25000000  1
  Te  Te3  1  0.25000000  0.25000000  0.25000000  1
  Te  Te4  1  0.00000000  0.25000000  0.12500000  1
  P  P5  1  0.05081116  0.34395046  0.01782744  1
  P  P6  1  0.35715883  0.24158822  0.42142062  1
  Li  Li7  1  0.96525998  0.14827791  0.75650458  1
  Sb  Sb8  1  0.58498709  0.13700019  0.90148423  1
  Sb  Sb9  1  0.02069290  0.98085964  0.55933045  1
