# generated using pymatgen
data_Li2Si4Te3F12
_symmetry_space_group_name_H-M   'P 1'
_cell_length_a   12.81020072
_cell_length_b   12.81020072
_cell_length_c   7.09643661
_cell_angle_alpha   90.00000000
_cell_angle_beta   90.00000000
_cell_angle_gamma   120.00000000
_symmetry_Int_Tables_number   1
_chemical_formula_structural   Li2Si4Te3F12
_chemical_formula_sum   'Li8 Si16 Te12 F48'
_cell_volume   1008.51608426
_cell_formula_units_Z   4
loop_
 _symmetry_equiv_pos_site_id
 _symmetry_equiv_pos_as_xyz
  1  'x, y, z'
loop_
 _atom_site_type_symbol
 _atom_site_label
 _atom_site_symmetry_multiplicity
 _atom_site_fract_x
 _atom_site_fract_y
 _atom_site_fract_z
 _atom_site_occupancy
  F  F0  1  0.87473727  0.64153927  0.52897120  1
  F  F1  1  -0.64153927  0.23319800  0.52897120  1
  F  F2  1  -0.23319800  -0.87473727  0.52897120  1
  F  F3  1  -0.87473727  -0.64153927  1.02897120  1
  F  F4  1  0.64153927  -0.23319800  1.02897120  1
  F  F5  1  0.23319800  0.87473727  1.02897120  1
  F  F6  1  -0.87473727  -0.64153927  -0.52897120  1
  F  F7  1  0.64153927  -0.23319800  -0.52897120  1
  F  F8  1  0.23319800  0.87473727  -0.52897120  1
  F  F9  1  0.87473727  0.64153927  -0.02897120  1
  F  F10  1  -0.64153927  0.23319800  -0.02897120  1
  F  F11  1  -0.23319800  -0.87473727  -0.02897120  1
  F  F12  1  0.44800353  0.50443929  0.25000000  1
  F  F13  1  0.49556071  0.94356424  0.25000000  1
  F  F14  1  0.05643576  0.55199647  0.25000000  1
  F  F15  1  0.55199647  0.49556071  0.75000000  1
  F  F16  1  0.50443929  0.05643576  0.75000000  1
  F  F17  1  0.94356424  0.44800353  0.75000000  1
  F  F18  1  0.72042960  0.63648907  0.03731645  1
  F  F19  1  0.36351093  0.08394054  0.03731645  1
  F  F20  1  0.91605946  0.27957040  0.03731645  1
  F  F21  1  0.27957040  0.36351093  0.53731645  1
  F  F22  1  0.63648907  0.91605946  0.53731645  1
  F  F23  1  0.08394054  0.72042960  0.53731645  1
  F  F24  1  0.27957040  0.36351093  0.96268355  1
  F  F25  1  0.63648907  0.91605946  0.96268355  1
  F  F26  1  0.08394054  0.72042960  0.96268355  1
  F  F27  1  0.72042960  0.63648907  0.46268355  1
  F  F28  1  0.36351093  0.08394054  0.46268355  1
  F  F29  1  0.91605946  0.27957040  0.46268355  1
  F  F30  1  0.50890760  0.37905186  0.25000000  1
  F  F31  1  0.62094814  0.12985574  0.25000000  1
  F  F32  1  0.87014426  0.49109240  0.25000000  1
  F  F33  1  0.49109240  0.62094814  0.75000000  1
  F  F34  1  0.37905186  0.87014426  0.75000000  1
  F  F35  1  0.12985574  0.50890760  0.75000000  1
  F  F36  1  0.31350091  0.91300179  0.20249945  1
  F  F37  1  0.08699821  0.40049912  0.20249945  1
  F  F38  1  0.59950088  0.68649909  0.20249945  1
  F  F39  1  0.68649909  0.08699821  0.70249945  1
  F  F40  1  0.91300179  0.59950088  0.70249945  1
  F  F41  1  0.40049912  0.31350091  0.70249945  1
  F  F42  1  0.68649909  0.08699821  0.79750055  1
  F  F43  1  0.91300179  0.59950088  0.79750055  1
  F  F44  1  0.40049912  0.31350091  0.79750055  1
  F  F45  1  0.31350091  0.91300179  0.29750055  1
  F  F46  1  0.08699821  0.40049912  0.29750055  1
  F  F47  1  0.59950088  0.68649909  0.29750055  1
  Li  Li48  1  0.50000000  0.00000000  0.00000000  1
  Li  Li49  1  0.00000000  0.50000000  -0.00000000  1
  Li  Li50  1  0.50000000  0.50000000  0.00000000  1
  Li  Li51  1  0.50000000  0.00000000  0.50000000  1
  Li  Li52  1  0.00000000  0.50000000  0.50000000  1
  Li  Li53  1  0.50000000  0.50000000  0.50000000  1
  Li  Li54  1  0.66666667  0.33333333  0.25000000  1
  Li  Li55  1  0.33333333  0.66666667  0.75000000  1
  Si  Si56  1  0.25989928  0.82183856  0.25000000  1
  Si  Si57  1  0.17816144  0.43806072  0.25000000  1
  Si  Si58  1  0.56193928  0.74010072  0.25000000  1
  Si  Si59  1  0.74010072  0.17816144  0.75000000  1
  Si  Si60  1  0.82183856  0.56193928  0.75000000  1
  Si  Si61  1  0.43806072  0.25989928  0.75000000  1
  Si  Si62  1  0.33333333  0.66666667  0.25000000  1
  Si  Si63  1  0.66666667  0.33333333  0.75000000  1
  Si  Si64  1  0.91796267  0.80249990  0.25000000  1
  Si  Si65  1  0.19750010  0.11546277  0.25000000  1
  Si  Si66  1  0.88453723  0.08203733  0.25000000  1
  Si  Si67  1  0.08203733  0.19750010  0.75000000  1
  Si  Si68  1  0.80249990  0.88453723  0.75000000  1
  Si  Si69  1  0.11546277  0.91796267  0.75000000  1
  Si  Si70  1  0.00000000  0.00000000  0.25000000  1
  Si  Si71  1  0.00000000  0.00000000  0.75000000  1
  Te  Te72  1  0.97725953  0.37748901  0.25000000  1
  Te  Te73  1  0.62251099  0.59977052  0.25000000  1
  Te  Te74  1  0.40022948  0.02274047  0.25000000  1
  Te  Te75  1  0.02274047  0.62251099  0.75000000  1
  Te  Te76  1  0.37748901  0.40022948  0.75000000  1
  Te  Te77  1  0.59977052  0.97725953  0.75000000  1
  Te  Te78  1  0.00000000  0.00000000  0.00000000  1
  Te  Te79  1  0.00000000  0.00000000  0.50000000  1
  Te  Te80  1  0.33333333  0.66666667  0.95161620  1
  Te  Te81  1  0.66666667  0.33333333  0.45161620  1
  Te  Te82  1  0.66666667  0.33333333  0.04838380  1
  Te  Te83  1  0.33333333  0.66666667  0.54838380  1
