# generated using pymatgen
data_LiF
_symmetry_space_group_name_H-M   'P 1'
_cell_length_a   6.80674217
_cell_length_b   6.80674217
_cell_length_c   16.18826142
_cell_angle_alpha   90.00000000
_cell_angle_beta   90.00000000
_cell_angle_gamma   120.00000000
_symmetry_Int_Tables_number   1
_chemical_formula_structural   LiF
_chemical_formula_sum   'Li23 F23'
_cell_volume   649.54529555
_cell_formula_units_Z   23
loop_
 _symmetry_equiv_pos_site_id
 _symmetry_equiv_pos_as_xyz
  1  'x, y, z'
loop_
 _atom_site_type_symbol
 _atom_site_label
 _atom_site_symmetry_multiplicity
 _atom_site_fract_x
 _atom_site_fract_y
 _atom_site_fract_z
 _atom_site_occupancy
  F  F0  1  0.80325761  0.41651360  0.20004308  1
  F  F1  1  0.58348640  0.38674401  0.20004308  1
  F  F2  1  0.61325599  0.19674239  0.20004308  1
  F  F3  1  0.58348640  0.19674239  0.79995692  1
  F  F4  1  0.61325599  0.41651360  0.79995692  1
  F  F5  1  0.80325761  0.38674401  0.79995692  1
  F  F6  1  0.00000000  0.00000000  0.10658366  1
  F  F7  1  0.00000000  0.00000000  0.89341634  1
  F  F8  1  0.00000000  0.00000000  0.50000000  1
  F  F9  1  0.33333333  0.66666667  0.40694498  1
  F  F10  1  0.33333333  0.66666667  0.59305502  1
  F  F11  1  0.75092954  0.76145739  0.47211146  1
  F  F12  1  0.23854261  0.98947215  0.47211146  1
  F  F13  1  0.01052785  0.24907046  0.47211146  1
  F  F14  1  0.23854261  0.24907046  0.52788854  1
  F  F15  1  0.01052785  0.76145739  0.52788854  1
  F  F16  1  0.75092954  0.98947215  0.52788854  1
  F  F17  1  0.55678170  0.19403841  0.09770844  1
  F  F18  1  0.80596159  0.36274329  0.09770844  1
  F  F19  1  0.63725671  0.44321830  0.09770844  1
  F  F20  1  0.80596159  0.44321830  0.90229156  1
  F  F21  1  0.63725671  0.19403841  0.90229156  1
  F  F22  1  0.55678170  0.36274329  0.90229156  1
  Li  Li23  1  0.66666667  0.33333333  0.16519479  1
  Li  Li24  1  0.66666667  0.33333333  0.83480521  1
  Li  Li25  1  0.19585648  0.95734038  0.12398844  1
  Li  Li26  1  -0.95734038  -0.76148390  0.12398844  1
  Li  Li27  1  0.76148390  -0.19585648  0.12398844  1
  Li  Li28  1  -0.95734038  -0.19585648  -0.12398844  1
  Li  Li29  1  0.76148390  0.95734038  -0.12398844  1
  Li  Li30  1  0.19585648  -0.76148390  -0.12398844  1
  Li  Li31  1  0.66666667  0.33333333  0.54804741  1
  Li  Li32  1  0.66666667  0.33333333  0.45195259  1
  Li  Li33  1  0.17542274  0.13132958  0.64790022  1
  Li  Li34  1  0.86867042  0.04409316  0.64790022  1
  Li  Li35  1  0.95590684  0.82457726  0.64790022  1
  Li  Li36  1  0.86867042  0.82457726  0.35209978  1
  Li  Li37  1  0.95590684  0.13132958  0.35209978  1
  Li  Li38  1  0.17542274  0.04409316  0.35209978  1
  Li  Li39  1  0.33333333  0.66666667  0.50000000  1
  Li  Li40  1  0.96365412  0.74987971  0.41374354  1
  Li  Li41  1  0.25012029  0.21377441  0.41374354  1
  Li  Li42  1  0.78622559  0.03634588  0.41374354  1
  Li  Li43  1  0.25012029  0.03634588  0.58625646  1
  Li  Li44  1  0.78622559  0.74987971  0.58625646  1
  Li  Li45  1  0.96365412  0.21377441  0.58625646  1
