# generated using pymatgen
data_LiF
_symmetry_space_group_name_H-M   'P 1'
_cell_length_a   7.67107992
_cell_length_b   9.78589506
_cell_length_c   10.75423085
_cell_angle_alpha   90.00000000
_cell_angle_beta   90.00000000
_cell_angle_gamma   90.00000000
_symmetry_Int_Tables_number   1
_chemical_formula_structural   LiF
_chemical_formula_sum   'Li24 F24'
_cell_volume   807.30272184
_cell_formula_units_Z   24
loop_
 _symmetry_equiv_pos_site_id
 _symmetry_equiv_pos_as_xyz
  1  'x, y, z'
loop_
 _atom_site_type_symbol
 _atom_site_label
 _atom_site_symmetry_multiplicity
 _atom_site_fract_x
 _atom_site_fract_y
 _atom_site_fract_z
 _atom_site_occupancy
  F  F0  1  0.00000000  0.00000000  0.00000000  1
  F  F1  1  0.50000000  0.00000000  0.50000000  1
  F  F2  1  0.00000000  0.50000000  0.00000000  1
  F  F3  1  0.50000000  0.50000000  0.50000000  1
  F  F4  1  0.00000000  0.00000000  0.50000000  1
  F  F5  1  0.50000000  0.00000000  -0.00000000  1
  F  F6  1  0.00000000  0.50000000  0.50000000  1
  F  F7  1  0.50000000  0.50000000  0.00000000  1
  F  F8  1  0.00647421  0.84747331  0.52468984  1
  F  F9  1  0.49352579  0.15252669  0.02468984  1
  F  F10  1  0.99352579  0.34747331  0.47531016  1
  F  F11  1  0.50647421  0.65252669  0.97531016  1
  F  F12  1  0.99352579  0.15252669  0.47531016  1
  F  F13  1  0.50647421  0.84747331  0.97531016  1
  F  F14  1  0.00647421  0.65252669  0.52468984  1
  F  F15  1  0.49352579  0.34747331  0.02468984  1
  F  F16  1  0.06303683  0.65506581  0.72396627  1
  F  F17  1  0.43696317  0.34493419  0.22396627  1
  F  F18  1  0.93696317  0.15506581  0.27603373  1
  F  F19  1  0.56303683  0.84493419  0.77603373  1
  F  F20  1  0.93696317  0.34493419  0.27603373  1
  F  F21  1  0.56303683  0.65506581  0.77603373  1
  F  F22  1  0.06303683  0.84493419  0.72396627  1
  F  F23  1  0.43696317  0.15506581  0.22396627  1
  Li  Li24  1  0.39298063  0.25000000  0.24165383  1
  Li  Li25  1  0.10701937  0.75000000  0.74165383  1
  Li  Li26  1  0.60701937  0.75000000  0.75834617  1
  Li  Li27  1  0.89298063  0.25000000  0.25834617  1
  Li  Li28  1  0.13980565  0.44750221  0.61332217  1
  Li  Li29  1  0.36019435  -0.44750221  1.11332217  1
  Li  Li30  1  -0.13980565  0.94750221  -0.61332217  1
  Li  Li31  1  0.63980565  0.05249779  -0.11332217  1
  Li  Li32  1  -0.13980565  -0.44750221  -0.61332217  1
  Li  Li33  1  0.63980565  0.44750221  -0.11332217  1
  Li  Li34  1  0.13980565  0.05249779  0.61332217  1
  Li  Li35  1  0.36019435  0.94750221  1.11332217  1
  Li  Li36  1  0.03217110  0.25000000  0.62705060  1
  Li  Li37  1  0.46782890  0.75000000  0.12705060  1
  Li  Li38  1  0.96782890  0.75000000  0.37294940  1
  Li  Li39  1  0.53217110  0.25000000  0.87294940  1
  Li  Li40  1  0.42290689  0.63192645  0.46897148  1
  Li  Li41  1  0.07709311  0.36807355  0.96897148  1
  Li  Li42  1  0.57709311  0.13192645  0.53102852  1
  Li  Li43  1  0.92290689  0.86807355  0.03102852  1
  Li  Li44  1  0.57709311  0.36807355  0.53102852  1
  Li  Li45  1  0.92290689  0.63192645  0.03102852  1
  Li  Li46  1  0.42290689  0.86807355  0.46897148  1
  Li  Li47  1  0.07709311  0.13192645  0.96897148  1
