# generated using pymatgen
data_Li2Ca3F8
_symmetry_space_group_name_H-M   'P 1'
_cell_length_a   9.17994646
_cell_length_b   9.17994646
_cell_length_c   22.91647995
_cell_angle_alpha   90.00000000
_cell_angle_beta   90.00000000
_cell_angle_gamma   90.00000000
_symmetry_Int_Tables_number   1
_chemical_formula_structural   Li2Ca3F8
_chemical_formula_sum   'Li16 Ca24 F64'
_cell_volume   1931.20423772
_cell_formula_units_Z   8
loop_
 _symmetry_equiv_pos_site_id
 _symmetry_equiv_pos_as_xyz
  1  'x, y, z'
loop_
 _atom_site_type_symbol
 _atom_site_label
 _atom_site_symmetry_multiplicity
 _atom_site_fract_x
 _atom_site_fract_y
 _atom_site_fract_z
 _atom_site_occupancy
  Ca  Ca0  1  0.00000000  0.25000000  0.99760841  1
  Ca  Ca1  1  0.00000000  0.75000000  0.24760841  1
  Ca  Ca2  1  0.50000000  0.25000000  0.00239159  1
  Ca  Ca3  1  0.50000000  0.75000000  0.75239159  1
  Ca  Ca4  1  0.00000000  0.75000000  0.00239159  1
  Ca  Ca5  1  0.00000000  0.25000000  0.75239159  1
  Ca  Ca6  1  0.50000000  0.75000000  0.99760841  1
  Ca  Ca7  1  0.50000000  0.25000000  0.24760841  1
  Ca  Ca8  1  0.50000000  0.75000000  0.49760841  1
  Ca  Ca9  1  0.50000000  0.25000000  0.74760841  1
  Ca  Ca10  1  0.00000000  0.75000000  0.50239159  1
  Ca  Ca11  1  0.00000000  0.25000000  0.25239159  1
  Ca  Ca12  1  0.50000000  0.25000000  0.50239159  1
  Ca  Ca13  1  0.50000000  0.75000000  0.25239159  1
  Ca  Ca14  1  0.00000000  0.25000000  0.49760841  1
  Ca  Ca15  1  0.00000000  0.75000000  0.74760841  1
  Ca  Ca16  1  0.00000000  0.25000000  0.12500000  1
  Ca  Ca17  1  0.00000000  0.75000000  0.37500000  1
  Ca  Ca18  1  0.00000000  0.75000000  0.87500000  1
  Ca  Ca19  1  0.00000000  0.25000000  0.62500000  1
  Ca  Ca20  1  0.50000000  0.75000000  0.62500000  1
  Ca  Ca21  1  0.50000000  0.25000000  0.87500000  1
  Ca  Ca22  1  0.50000000  0.25000000  0.37500000  1
  Ca  Ca23  1  0.50000000  0.75000000  0.12500000  1
  F  F24  1  0.18411594  0.82526927  0.64988958  1
  F  F25  1  0.31588406  -0.82526927  1.14988958  1
  F  F26  1  -0.57526927  0.93411594  0.89988958  1
  F  F27  1  1.07526927  0.06588406  1.39988958  1
  F  F28  1  0.31588406  0.82526927  -0.64988958  1
  F  F29  1  0.18411594  -0.82526927  -0.14988958  1
  F  F30  1  1.07526927  0.93411594  0.10011042  1
  F  F31  1  -0.57526927  0.06588406  -0.39988958  1
  F  F32  1  -0.18411594  -0.82526927  -0.64988958  1
  F  F33  1  0.68411594  0.82526927  -0.14988958  1
  F  F34  1  1.57526927  0.06588406  0.10011042  1
  F  F35  1  -0.07526927  0.93411594  -0.39988958  1
  F  F36  1  0.68411594  -0.82526927  0.64988958  1
  F  F37  1  -0.18411594  0.82526927  1.14988958  1
  F  F38  1  -0.07526927  0.06588406  0.89988958  1
  F  F39  1  1.57526927  0.93411594  1.39988958  1
  F  F40  1  0.68411594  1.32526927  1.14988958  1
  F  F41  1  0.81588406  -0.32526927  1.64988958  1
  F  F42  1  -0.07526927  1.43411594  1.39988958  1
  F  F43  1  1.57526927  0.56588406  1.89988958  1
  F  F44  1  0.81588406  1.32526927  -0.14988958  1
  F  F45  1  0.68411594  -0.32526927  0.35011042  1
  F  F46  1  1.57526927  1.43411594  0.60011042  1
  F  F47  1  -0.07526927  0.56588406  0.10011042  1
  F  F48  1  0.31588406  -0.32526927  -0.14988958  1
  F  F49  1  1.18411594  1.32526927  0.35011042  1
  F  F50  1  2.07526927  0.56588406  0.60011042  1
  F  F51  1  0.42473073  1.43411594  0.10011042  1
  F  F52  1  1.18411594  -0.32526927  1.14988958  1
  F  F53  1  0.31588406  1.32526927  1.64988958  1
  F  F54  1  0.42473073  0.56588406  1.39988958  1
  F  F55  1  2.07526927  1.43411594  1.89988958  1
  F  F56  1  0.38845778  0.73954594  0.88806354  1
  F  F57  1  0.11154222  0.26045406  0.38806354  1
  F  F58  1  0.51045406  0.13845778  0.13806354  1
  F  F59  1  0.98954594  0.86154222  0.63806354  1
  F  F60  1  0.11154222  0.73954594  0.11193646  1
  F  F61  1  0.38845778  0.26045406  0.61193646  1
  F  F62  1  0.98954594  0.13845778  0.86193646  1
  F  F63  1  0.51045406  0.86154222  0.36193646  1
  F  F64  1  0.61154222  0.26045406  0.11193646  1
  F  F65  1  0.88845778  0.73954594  0.61193646  1
  F  F66  1  0.48954594  0.86154222  0.86193646  1
  F  F67  1  0.01045406  0.13845778  0.36193646  1
  F  F68  1  0.88845778  0.26045406  0.88806354  1
  F  F69  1  0.61154222  0.73954594  0.38806354  1
  F  F70  1  0.01045406  0.86154222  0.13806354  1
  F  F71  1  0.48954594  0.13845778  0.63806354  1
  F  F72  1  0.88845778  0.23954594  0.38806354  1
  F  F73  1  0.61154222  0.76045406  0.88806354  1
  F  F74  1  0.01045406  0.63845778  0.63806354  1
  F  F75  1  0.48954594  0.36154222  0.13806354  1
  F  F76  1  0.61154222  0.23954594  0.61193646  1
  F  F77  1  0.88845778  0.76045406  0.11193646  1
  F  F78  1  0.48954594  0.63845778  0.36193646  1
  F  F79  1  0.01045406  0.36154222  0.86193646  1
  F  F80  1  0.11154222  0.76045406  0.61193646  1
  F  F81  1  0.38845778  0.23954594  0.11193646  1
  F  F82  1  0.98954594  0.36154222  0.36193646  1
  F  F83  1  0.51045406  0.63845778  0.86193646  1
  F  F84  1  0.38845778  0.76045406  0.38806354  1
  F  F85  1  0.11154222  0.23954594  0.88806354  1
  F  F86  1  0.51045406  0.36154222  0.63806354  1
  F  F87  1  0.98954594  0.63845778  0.13806354  1
  Li  Li88  1  0.83174879  0.08174879  0.12500000  1
  Li  Li89  1  0.66825121  0.91825121  0.62500000  1
  Li  Li90  1  0.16825121  0.58174879  0.37500000  1
  Li  Li91  1  0.33174879  0.41825121  0.87500000  1
  Li  Li92  1  0.16825121  0.91825121  0.87500000  1
  Li  Li93  1  0.33174879  0.08174879  0.37500000  1
  Li  Li94  1  0.83174879  0.41825121  0.62500000  1
  Li  Li95  1  0.66825121  0.58174879  0.12500000  1
  Li  Li96  1  0.33174879  0.58174879  0.62500000  1
  Li  Li97  1  0.16825121  0.41825121  0.12500000  1
  Li  Li98  1  0.66825121  0.08174879  0.87500000  1
  Li  Li99  1  0.83174879  0.91825121  0.37500000  1
  Li  Li100  1  0.66825121  0.41825121  0.37500000  1
  Li  Li101  1  0.83174879  0.58174879  0.87500000  1
  Li  Li102  1  0.33174879  0.91825121  0.12500000  1
  Li  Li103  1  0.16825121  0.08174879  0.62500000  1
