# generated using pymatgen
data_LiYSb2(Te2P)2
_symmetry_space_group_name_H-M   'P 1'
_cell_length_a   4.97283090
_cell_length_b   5.04253606
_cell_length_c   6.40542793
_cell_angle_alpha   94.70188895
_cell_angle_beta   97.41086037
_cell_angle_gamma   104.44919253
_symmetry_Int_Tables_number   1
_chemical_formula_structural   LiYSb2(Te2P)2
_chemical_formula_sum   'Li1 Y1 Sb2 Te4 P2'
_cell_volume   153.14692119
_cell_formula_units_Z   1
loop_
 _symmetry_equiv_pos_site_id
 _symmetry_equiv_pos_as_xyz
  1  'x, y, z'
loop_
 _atom_site_type_symbol
 _atom_site_label
 _atom_site_symmetry_multiplicity
 _atom_site_fract_x
 _atom_site_fract_y
 _atom_site_fract_z
 _atom_site_occupancy
  Te  Te0  1  0.12500000  0.00000000  0.25000000  1
  Te  Te1  1  0.00000000  0.00000000  0.00000000  1
  Te  Te2  1  0.37500000  0.00000000  0.25000000  1
  Te  Te3  1  0.25000000  0.25000000  0.25000000  1
  Y  Y4  1  0.00000000  0.25000000  0.12500000  1
  P  P5  1  0.38854720  0.79333814  0.28552126  1
  P  P6  1  0.45136959  0.40530532  0.48214378  1
  Li  Li7  1  0.20190892  0.75310262  0.98990870  1
  Sb  Sb8  1  0.07346877  0.22276313  0.92473826  1
  Sb  Sb9  1  0.30453930  0.23292681  0.58930146  1
