# generated using pymatgen
data_LiF
_symmetry_space_group_name_H-M   'P 1'
_cell_length_a   11.76162040
_cell_length_b   9.20662587
_cell_length_c   7.59817200
_cell_angle_alpha   90.00000000
_cell_angle_beta   90.00000000
_cell_angle_gamma   90.00000000
_symmetry_Int_Tables_number   1
_chemical_formula_structural   LiF
_chemical_formula_sum   'Li34 F34'
_cell_volume   822.76682948
_cell_formula_units_Z   34
loop_
 _symmetry_equiv_pos_site_id
 _symmetry_equiv_pos_as_xyz
  1  'x, y, z'
loop_
 _atom_site_type_symbol
 _atom_site_label
 _atom_site_symmetry_multiplicity
 _atom_site_fract_x
 _atom_site_fract_y
 _atom_site_fract_z
 _atom_site_occupancy
  F  F0  1  0.22087674  0.91889144  0.66484083  1
  F  F1  1  -0.22087674  -0.91889144  0.66484083  1
  F  F2  1  0.27912326  1.41889144  -0.66484083  1
  F  F3  1  0.72087674  -0.41889144  -0.66484083  1
  F  F4  1  -0.22087674  -0.91889144  -0.66484083  1
  F  F5  1  0.22087674  0.91889144  -0.66484083  1
  F  F6  1  0.72087674  -0.41889144  0.66484083  1
  F  F7  1  0.27912326  1.41889144  0.66484083  1
  F  F8  1  0.58071631  0.94210023  0.54522772  1
  F  F9  1  0.41928369  0.05789977  0.54522772  1
  F  F10  1  0.91928369  0.44210023  0.45477228  1
  F  F11  1  0.08071631  0.55789977  0.45477228  1
  F  F12  1  0.41928369  0.05789977  0.45477228  1
  F  F13  1  0.58071631  0.94210023  0.45477228  1
  F  F14  1  0.08071631  0.55789977  0.54522772  1
  F  F15  1  0.91928369  0.44210023  0.54522772  1
  F  F16  1  0.51594882  0.38313215  0.42783159  1
  F  F17  1  0.48405118  0.61686785  0.42783159  1
  F  F18  1  0.98405118  0.88313215  0.57216841  1
  F  F19  1  0.01594882  0.11686785  0.57216841  1
  F  F20  1  0.48405118  0.61686785  0.57216841  1
  F  F21  1  0.51594882  0.38313215  0.57216841  1
  F  F22  1  0.01594882  0.11686785  0.42783159  1
  F  F23  1  0.98405118  0.88313215  0.42783159  1
  F  F24  1  0.70927299  0.11241438  0.93041139  1
  F  F25  1  0.29072701  0.88758562  0.93041139  1
  F  F26  1  0.79072701  0.61241438  0.06958861  1
  F  F27  1  0.20927299  0.38758562  0.06958861  1
  F  F28  1  0.29072701  0.88758562  0.06958861  1
  F  F29  1  0.70927299  0.11241438  0.06958861  1
  F  F30  1  0.20927299  0.38758562  0.93041139  1
  F  F31  1  0.79072701  0.61241438  0.93041139  1
  F  F32  1  0.00000000  0.00000000  0.00000000  1
  F  F33  1  0.50000000  0.50000000  0.00000000  1
  Li  Li34  1  0.35646472  0.50272674  0.00000000  1
  Li  Li35  1  0.64353528  0.49727326  0.00000000  1
  Li  Li36  1  0.14353528  0.00272674  -0.00000000  1
  Li  Li37  1  0.85646472  0.99727326  0.00000000  1
  Li  Li38  1  0.00000000  0.50000000  0.89369561  1
  Li  Li39  1  0.50000000  0.00000000  0.10630439  1
  Li  Li40  1  0.00000000  0.50000000  0.10630439  1
  Li  Li41  1  0.50000000  0.00000000  0.89369561  1
  Li  Li42  1  0.00000000  0.00000000  0.13091986  1
  Li  Li43  1  0.50000000  0.50000000  0.86908014  1
  Li  Li44  1  0.00000000  0.00000000  0.86908014  1
  Li  Li45  1  0.50000000  0.50000000  0.13091986  1
  Li  Li46  1  0.00000000  0.50000000  0.37792304  1
  Li  Li47  1  0.50000000  0.00000000  0.62207696  1
  Li  Li48  1  0.00000000  0.50000000  0.62207696  1
  Li  Li49  1  0.50000000  0.00000000  0.37792304  1
  Li  Li50  1  0.78746503  0.05214651  0.80122805  1
  Li  Li51  1  0.21253497  0.94785349  0.80122805  1
  Li  Li52  1  0.71253497  0.55214651  0.19877195  1
  Li  Li53  1  0.28746503  0.44785349  0.19877195  1
  Li  Li54  1  0.21253497  0.94785349  0.19877195  1
  Li  Li55  1  0.78746503  0.05214651  0.19877195  1
  Li  Li56  1  0.28746503  0.44785349  0.80122805  1
  Li  Li57  1  0.71253497  0.55214651  0.80122805  1
  Li  Li58  1  0.00000000  0.00000000  0.50000000  1
  Li  Li59  1  0.50000000  0.50000000  0.50000000  1
  Li  Li60  1  0.58573096  0.47237959  0.65179561  1
  Li  Li61  1  0.41426904  0.52762041  0.65179561  1
  Li  Li62  1  0.91426904  0.97237959  0.34820439  1
  Li  Li63  1  0.08573096  0.02762041  0.34820439  1
  Li  Li64  1  0.41426904  0.52762041  0.34820439  1
  Li  Li65  1  0.58573096  0.47237959  0.34820439  1
  Li  Li66  1  0.08573096  0.02762041  0.65179561  1
  Li  Li67  1  0.91426904  0.97237959  0.65179561  1
