# generated using pymatgen
data_LiF
_symmetry_space_group_name_H-M   'P 1'
_cell_length_a   11.11420689
_cell_length_b   8.64464447
_cell_length_c   6.61874745
_cell_angle_alpha   90.00000000
_cell_angle_beta   90.00000000
_cell_angle_gamma   90.00000000
_symmetry_Int_Tables_number   1
_chemical_formula_structural   LiF
_chemical_formula_sum   'Li24 F24'
_cell_volume   635.91844746
_cell_formula_units_Z   24
loop_
 _symmetry_equiv_pos_site_id
 _symmetry_equiv_pos_as_xyz
  1  'x, y, z'
loop_
 _atom_site_type_symbol
 _atom_site_label
 _atom_site_symmetry_multiplicity
 _atom_site_fract_x
 _atom_site_fract_y
 _atom_site_fract_z
 _atom_site_occupancy
  F  F0  1  0.85946880  0.37988969  0.49179742  1
  F  F1  1  0.64053120  0.62011031  0.99179742  1
  F  F2  1  0.14053120  0.87988969  0.50820258  1
  F  F3  1  0.35946880  0.12011031  0.00820258  1
  F  F4  1  0.14053120  0.62011031  0.50820258  1
  F  F5  1  0.35946880  0.37988969  0.00820258  1
  F  F6  1  0.85946880  0.12011031  0.49179742  1
  F  F7  1  0.64053120  0.87988969  0.99179742  1
  F  F8  1  0.65922029  0.91878231  0.75646526  1
  F  F9  1  0.84077971  0.08121769  0.25646526  1
  F  F10  1  0.34077971  0.41878231  0.24353474  1
  F  F11  1  0.15922029  0.58121769  0.74353474  1
  F  F12  1  0.34077971  0.08121769  0.24353474  1
  F  F13  1  0.15922029  0.91878231  0.74353474  1
  F  F14  1  0.65922029  0.58121769  0.75646526  1
  F  F15  1  0.84077971  0.41878231  0.25646526  1
  F  F16  1  0.94694904  0.25000000  0.45683585  1
  F  F17  1  0.55305096  0.75000000  0.95683585  1
  F  F18  1  0.05305096  0.75000000  0.54316415  1
  F  F19  1  0.44694904  0.25000000  0.04316415  1
  F  F20  1  0.75776103  0.25000000  0.09863103  1
  F  F21  1  0.74223897  0.75000000  0.59863103  1
  F  F22  1  0.24223897  0.75000000  0.90136897  1
  F  F23  1  0.25776103  0.25000000  0.40136897  1
  Li  Li24  1  0.60682903  0.11766386  0.29195051  1
  Li  Li25  1  -0.10682903  -0.11766386  0.79195051  1
  Li  Li26  1  -0.60682903  0.61766386  -0.29195051  1
  Li  Li27  1  1.10682903  0.38233614  0.20804949  1
  Li  Li28  1  -0.60682903  -0.11766386  -0.29195051  1
  Li  Li29  1  1.10682903  0.11766386  0.20804949  1
  Li  Li30  1  0.60682903  0.38233614  0.29195051  1
  Li  Li31  1  -0.10682903  0.61766386  0.79195051  1
  Li  Li32  1  0.00000000  0.00000000  0.50000000  1
  Li  Li33  1  0.50000000  -0.00000000  0.00000000  1
  Li  Li34  1  0.00000000  0.50000000  0.50000000  1
  Li  Li35  1  0.50000000  0.50000000  0.00000000  1
  Li  Li36  1  0.53987248  0.17095383  0.01497280  1
  Li  Li37  1  0.96012752  0.82904617  0.51497280  1
  Li  Li38  1  0.46012752  0.67095383  0.98502720  1
  Li  Li39  1  0.03987248  0.32904617  0.48502720  1
  Li  Li40  1  0.46012752  0.82904617  0.98502720  1
  Li  Li41  1  0.03987248  0.17095383  0.48502720  1
  Li  Li42  1  0.53987248  0.32904617  0.01497280  1
  Li  Li43  1  0.96012752  0.67095383  0.51497280  1
  Li  Li44  1  0.04830669  0.25000000  0.07788035  1
  Li  Li45  1  0.45169331  0.75000000  0.57788035  1
  Li  Li46  1  0.95169331  0.75000000  0.92211965  1
  Li  Li47  1  0.54830669  0.25000000  0.42211965  1
