# generated using pymatgen
data_LiF
_symmetry_space_group_name_H-M   'P 1'
_cell_length_a   6.75891094
_cell_length_b   6.75891094
_cell_length_c   9.66823482
_cell_angle_alpha   90.00000000
_cell_angle_beta   90.00000000
_cell_angle_gamma   90.00000000
_symmetry_Int_Tables_number   1
_chemical_formula_structural   LiF
_chemical_formula_sum   'Li17 F17'
_cell_volume   441.67278360
_cell_formula_units_Z   17
loop_
 _symmetry_equiv_pos_site_id
 _symmetry_equiv_pos_as_xyz
  1  'x, y, z'
loop_
 _atom_site_type_symbol
 _atom_site_label
 _atom_site_symmetry_multiplicity
 _atom_site_fract_x
 _atom_site_fract_y
 _atom_site_fract_z
 _atom_site_occupancy
  F  F0  1  0.16888756  0.16888756  0.00000000  1
  F  F1  1  0.83111244  0.83111244  0.00000000  1
  F  F2  1  0.83111244  0.16888756  -0.00000000  1
  F  F3  1  0.16888756  0.83111244  0.00000000  1
  F  F4  1  0.00000000  0.00000000  0.00000000  1
  F  F5  1  0.30657755  0.50000000  0.50000000  1
  F  F6  1  0.69342245  0.50000000  0.50000000  1
  F  F7  1  0.50000000  0.30657755  0.50000000  1
  F  F8  1  0.50000000  0.69342245  0.50000000  1
  F  F9  1  0.00000000  0.50000000  0.10067736  1
  F  F10  1  0.50000000  0.00000000  0.10067736  1
  F  F11  1  0.00000000  0.50000000  0.89932264  1
  F  F12  1  0.50000000  0.00000000  0.89932264  1
  F  F13  1  0.00000000  0.50000000  0.50000000  1
  F  F14  1  0.50000000  0.00000000  0.50000000  1
  F  F15  1  0.00000000  0.50000000  0.00000000  1
  F  F16  1  0.50000000  0.00000000  0.00000000  1
  Li  Li17  1  0.00000000  0.00000000  0.50000000  1
  Li  Li18  1  0.50000000  0.50000000  0.50000000  1
  Li  Li19  1  0.74183530  0.50000000  -0.00000000  1
  Li  Li20  1  -0.74183530  0.50000000  -0.00000000  1
  Li  Li21  1  0.50000000  0.74183530  0.00000000  1
  Li  Li22  1  0.50000000  -0.74183530  -0.00000000  1
  Li  Li23  1  0.18294263  -0.00000000  -0.00000000  1
  Li  Li24  1  0.81705737  0.00000000  0.00000000  1
  Li  Li25  1  0.00000000  0.18294263  -0.00000000  1
  Li  Li26  1  0.00000000  0.81705737  0.00000000  1
  Li  Li27  1  0.34199548  0.34199548  0.50000000  1
  Li  Li28  1  0.65800452  0.65800452  0.50000000  1
  Li  Li29  1  0.65800452  0.34199548  0.50000000  1
  Li  Li30  1  0.34199548  0.65800452  0.50000000  1
  Li  Li31  1  0.50000000  0.50000000  0.14411329  1
  Li  Li32  1  0.50000000  0.50000000  0.85588671  1
  Li  Li33  1  0.50000000  0.50000000  0.00000000  1
