# generated using pymatgen
data_LiF
_symmetry_space_group_name_H-M   'P 1'
_cell_length_a   8.71793426
_cell_length_b   7.05417471
_cell_length_c   9.76168274
_cell_angle_alpha   90.00000000
_cell_angle_beta   90.00000000
_cell_angle_gamma   90.00000000
_symmetry_Int_Tables_number   1
_chemical_formula_structural   LiF
_chemical_formula_sum   'Li24 F24'
_cell_volume   600.32231909
_cell_formula_units_Z   24
loop_
 _symmetry_equiv_pos_site_id
 _symmetry_equiv_pos_as_xyz
  1  'x, y, z'
loop_
 _atom_site_type_symbol
 _atom_site_label
 _atom_site_symmetry_multiplicity
 _atom_site_fract_x
 _atom_site_fract_y
 _atom_site_fract_z
 _atom_site_occupancy
  F  F0  1  0.54397611  0.16544397  0.29425041  1
  F  F1  1  0.95602389  0.83455603  0.79425041  1
  F  F2  1  0.45602389  0.66544397  0.70574959  1
  F  F3  1  0.04397611  0.33455603  0.20574959  1
  F  F4  1  0.45602389  0.83455603  0.70574959  1
  F  F5  1  0.04397611  0.16544397  0.20574959  1
  F  F6  1  0.54397611  0.33455603  0.29425041  1
  F  F7  1  0.95602389  0.66544397  0.79425041  1
  F  F8  1  0.33244385  0.25000000  0.81057052  1
  F  F9  1  0.16755615  0.75000000  0.31057052  1
  F  F10  1  0.66755615  0.75000000  0.18942948  1
  F  F11  1  0.83244385  0.25000000  0.68942948  1
  F  F12  1  0.14630957  0.25000000  0.53407259  1
  F  F13  1  0.35369043  0.75000000  0.03407259  1
  F  F14  1  0.85369043  0.75000000  0.46592741  1
  F  F15  1  0.64630957  0.25000000  0.96592741  1
  F  F16  1  0.76583844  0.17857439  0.91385723  1
  F  F17  1  0.73416156  0.82142561  0.41385723  1
  F  F18  1  0.23416156  0.67857439  0.08614277  1
  F  F19  1  0.26583844  0.32142561  0.58614277  1
  F  F20  1  0.23416156  0.82142561  0.08614277  1
  F  F21  1  0.26583844  0.17857439  0.58614277  1
  F  F22  1  0.76583844  0.32142561  0.91385723  1
  F  F23  1  0.73416156  0.67857439  0.41385723  1
  Li  Li24  1  0.15150516  0.91020686  0.02939641  1
  Li  Li25  1  0.34849484  -0.91020686  0.52939641  1
  Li  Li26  1  -0.15150516  1.41020686  -0.02939641  1
  Li  Li27  1  0.65150516  -0.41020686  0.47060359  1
  Li  Li28  1  -0.15150516  -0.91020686  -0.02939641  1
  Li  Li29  1  0.65150516  0.91020686  0.47060359  1
  Li  Li30  1  0.15150516  -0.41020686  0.02939641  1
  Li  Li31  1  0.34849484  1.41020686  0.52939641  1
  Li  Li32  1  0.12832333  0.25000000  0.78247874  1
  Li  Li33  1  0.37167667  0.75000000  0.28247874  1
  Li  Li34  1  0.87167667  0.75000000  0.21752126  1
  Li  Li35  1  0.62832333  0.25000000  0.71752126  1
  Li  Li36  1  0.47376006  0.25000000  0.10342013  1
  Li  Li37  1  0.02623994  0.75000000  0.60342013  1
  Li  Li38  1  0.52623994  0.75000000  0.89657987  1
  Li  Li39  1  0.97376006  0.25000000  0.39657987  1
  Li  Li40  1  0.11986931  0.25000000  0.02735449  1
  Li  Li41  1  0.38013069  0.75000000  0.52735449  1
  Li  Li42  1  0.88013069  0.75000000  0.97264551  1
  Li  Li43  1  0.61986931  0.25000000  0.47264551  1
  Li  Li44  1  0.00000000  0.00000000  0.50000000  1
  Li  Li45  1  0.50000000  0.00000000  0.00000000  1
  Li  Li46  1  0.00000000  0.50000000  0.50000000  1
  Li  Li47  1  0.50000000  0.50000000  0.00000000  1
