# generated using pymatgen
data_LiF
_symmetry_space_group_name_H-M   'P 1'
_cell_length_a   9.73204348
_cell_length_b   10.61853726
_cell_length_c   9.19796459
_cell_angle_alpha   90.00000000
_cell_angle_beta   90.00000000
_cell_angle_gamma   90.00000000
_symmetry_Int_Tables_number   1
_chemical_formula_structural   LiF
_chemical_formula_sum   'Li24 F24'
_cell_volume   950.51827025
_cell_formula_units_Z   24
loop_
 _symmetry_equiv_pos_site_id
 _symmetry_equiv_pos_as_xyz
  1  'x, y, z'
loop_
 _atom_site_type_symbol
 _atom_site_label
 _atom_site_symmetry_multiplicity
 _atom_site_fract_x
 _atom_site_fract_y
 _atom_site_fract_z
 _atom_site_occupancy
  F  F0  1  0.00000000  0.00000000  0.00000000  1
  F  F1  1  0.50000000  0.00000000  0.50000000  1
  F  F2  1  0.00000000  0.50000000  0.00000000  1
  F  F3  1  0.50000000  0.50000000  0.50000000  1
  F  F4  1  0.88417972  0.90210784  0.52726558  1
  F  F5  1  0.61582028  0.09789216  0.02726558  1
  F  F6  1  0.11582028  0.40210784  0.47273442  1
  F  F7  1  0.38417972  0.59789216  0.97273442  1
  F  F8  1  0.11582028  0.09789216  0.47273442  1
  F  F9  1  0.38417972  0.90210784  0.97273442  1
  F  F10  1  0.88417972  0.59789216  0.52726558  1
  F  F11  1  0.61582028  0.40210784  0.02726558  1
  F  F12  1  0.75317636  0.58556503  0.00346703  1
  F  F13  1  0.74682364  0.41443497  0.50346703  1
  F  F14  1  0.24682364  0.08556503  0.99653297  1
  F  F15  1  0.25317636  0.91443497  0.49653297  1
  F  F16  1  0.24682364  0.41443497  0.99653297  1
  F  F17  1  0.25317636  0.58556503  0.49653297  1
  F  F18  1  0.75317636  0.91443497  0.00346703  1
  F  F19  1  0.74682364  0.08556503  0.50346703  1
  F  F20  1  0.83321034  0.25000000  0.44531960  1
  F  F21  1  0.66678966  0.75000000  0.94531960  1
  F  F22  1  0.16678966  0.75000000  0.55468040  1
  F  F23  1  0.33321034  0.25000000  0.05468040  1
  Li  Li24  1  0.36753239  0.56431151  0.86823656  1
  Li  Li25  1  0.13246761  -0.56431151  1.36823656  1
  Li  Li26  1  -0.36753239  1.06431151  -0.86823656  1
  Li  Li27  1  0.86753239  -0.06431151  -0.36823656  1
  Li  Li28  1  -0.36753239  -0.56431151  -0.86823656  1
  Li  Li29  1  0.86753239  0.56431151  -0.36823656  1
  Li  Li30  1  0.36753239  -0.06431151  0.86823656  1
  Li  Li31  1  0.13246761  1.06431151  1.36823656  1
  Li  Li32  1  0.15562686  0.08513471  0.71080298  1
  Li  Li33  1  0.34437314  0.91486529  0.21080298  1
  Li  Li34  1  0.84437314  0.58513471  0.28919702  1
  Li  Li35  1  0.65562686  0.41486529  0.78919702  1
  Li  Li36  1  0.84437314  0.91486529  0.28919702  1
  Li  Li37  1  0.65562686  0.08513471  0.78919702  1
  Li  Li38  1  0.15562686  0.41486529  0.71080298  1
  Li  Li39  1  0.34437314  0.58513471  0.21080298  1
  Li  Li40  1  0.01361110  0.67838448  0.61853697  1
  Li  Li41  1  0.48638890  0.32161552  0.11853697  1
  Li  Li42  1  0.98638890  0.17838448  0.38146303  1
  Li  Li43  1  0.51361110  0.82161552  0.88146303  1
  Li  Li44  1  0.98638890  0.32161552  0.38146303  1
  Li  Li45  1  0.51361110  0.67838448  0.88146303  1
  Li  Li46  1  0.01361110  0.82161552  0.61853697  1
  Li  Li47  1  0.48638890  0.17838448  0.11853697  1
