# generated using pymatgen
data_LiF
_symmetry_space_group_name_H-M   'P 1'
_cell_length_a   10.12826443
_cell_length_b   10.59259189
_cell_length_c   5.79241321
_cell_angle_alpha   90.00000000
_cell_angle_beta   90.00000000
_cell_angle_gamma   90.00000000
_symmetry_Int_Tables_number   1
_chemical_formula_structural   LiF
_chemical_formula_sum   'Li20 F20'
_cell_volume   621.43657010
_cell_formula_units_Z   20
loop_
 _symmetry_equiv_pos_site_id
 _symmetry_equiv_pos_as_xyz
  1  'x, y, z'
loop_
 _atom_site_type_symbol
 _atom_site_label
 _atom_site_symmetry_multiplicity
 _atom_site_fract_x
 _atom_site_fract_y
 _atom_site_fract_z
 _atom_site_occupancy
  F  F0  1  0.18099970  0.91236150  0.74772881  1
  F  F1  1  0.31900030  0.08763850  0.24772881  1
  F  F2  1  0.81900030  0.41236150  0.25227119  1
  F  F3  1  0.68099970  0.58763850  0.75227119  1
  F  F4  1  0.81900030  0.08763850  0.25227119  1
  F  F5  1  0.68099970  0.91236150  0.75227119  1
  F  F6  1  0.18099970  0.58763850  0.74772881  1
  F  F7  1  0.31900030  0.41236150  0.24772881  1
  F  F8  1  0.68961247  0.42134313  0.28618034  1
  F  F9  1  0.81038753  0.57865687  0.78618034  1
  F  F10  1  0.31038753  0.92134313  0.71381966  1
  F  F11  1  0.18961247  0.07865687  0.21381966  1
  F  F12  1  0.31038753  0.57865687  0.71381966  1
  F  F13  1  0.18961247  0.42134313  0.21381966  1
  F  F14  1  0.68961247  0.07865687  0.28618034  1
  F  F15  1  0.81038753  0.92134313  0.78618034  1
  F  F16  1  0.00000000  0.00000000  0.00000000  1
  F  F17  1  0.50000000  0.00000000  0.50000000  1
  F  F18  1  0.00000000  0.50000000  0.00000000  1
  F  F19  1  0.50000000  0.50000000  0.50000000  1
  Li  Li20  1  0.42007834  0.60754221  0.30384962  1
  Li  Li21  1  0.07992166  -0.60754221  0.80384962  1
  Li  Li22  1  -0.42007834  1.10754221  -0.30384962  1
  Li  Li23  1  0.92007834  -0.10754221  0.19615038  1
  Li  Li24  1  -0.42007834  -0.60754221  -0.30384962  1
  Li  Li25  1  0.92007834  0.60754221  0.19615038  1
  Li  Li26  1  0.42007834  -0.10754221  0.30384962  1
  Li  Li27  1  0.07992166  1.10754221  0.80384962  1
  Li  Li28  1  0.95605487  0.59329002  0.95561650  1
  Li  Li29  1  0.54394513  0.40670998  0.45561650  1
  Li  Li30  1  0.04394513  0.09329002  0.04438350  1
  Li  Li31  1  0.45605487  0.90670998  0.54438350  1
  Li  Li32  1  0.04394513  0.40670998  0.04438350  1
  Li  Li33  1  0.45605487  0.59329002  0.54438350  1
  Li  Li34  1  0.95605487  0.90670998  0.95561650  1
  Li  Li35  1  0.54394513  0.09329002  0.45561650  1
  Li  Li36  1  0.83827785  0.25000000  0.40617981  1
  Li  Li37  1  0.66172215  0.75000000  0.90617981  1
  Li  Li38  1  0.16172215  0.75000000  0.59382019  1
  Li  Li39  1  0.33827785  0.25000000  0.09382019  1
