# generated using pymatgen
data_LiF
_symmetry_space_group_name_H-M   'P 1'
_cell_length_a   8.19913364
_cell_length_b   4.73519992
_cell_length_c   7.17360216
_cell_angle_alpha   90.00000000
_cell_angle_beta   90.00000000
_cell_angle_gamma   90.00000000
_symmetry_Int_Tables_number   1
_chemical_formula_structural   LiF
_chemical_formula_sum   'Li14 F14'
_cell_volume   278.51178259
_cell_formula_units_Z   14
loop_
 _symmetry_equiv_pos_site_id
 _symmetry_equiv_pos_as_xyz
  1  'x, y, z'
loop_
 _atom_site_type_symbol
 _atom_site_label
 _atom_site_symmetry_multiplicity
 _atom_site_fract_x
 _atom_site_fract_y
 _atom_site_fract_z
 _atom_site_occupancy
  F  F0  1  0.60669166  0.97899074  0.30481931  1
  F  F1  1  -0.60669166  -0.97899074  0.30481931  1
  F  F2  1  -0.10669166  1.47899074  -0.30481931  1
  F  F3  1  1.10669166  -0.47899074  -0.30481931  1
  F  F4  1  -0.60669166  -0.97899074  -0.30481931  1
  F  F5  1  0.60669166  0.97899074  -0.30481931  1
  F  F6  1  1.10669166  -0.47899074  0.30481931  1
  F  F7  1  -0.10669166  1.47899074  0.30481931  1
  F  F8  1  0.00000000  0.50000000  0.50000000  1
  F  F9  1  0.50000000  0.00000000  0.50000000  1
  F  F10  1  0.00000000  0.00000000  0.27323219  1
  F  F11  1  0.50000000  0.50000000  0.72676781  1
  F  F12  1  0.00000000  0.00000000  0.72676781  1
  F  F13  1  0.50000000  0.50000000  0.27323219  1
  Li  Li14  1  0.58897474  0.46049181  0.15082367  1
  Li  Li15  1  0.41102526  0.53950819  0.15082367  1
  Li  Li16  1  0.91102526  0.96049181  0.84917633  1
  Li  Li17  1  0.08897474  0.03950819  0.84917633  1
  Li  Li18  1  0.41102526  0.53950819  0.84917633  1
  Li  Li19  1  0.58897474  0.46049181  0.84917633  1
  Li  Li20  1  0.08897474  0.03950819  0.15082367  1
  Li  Li21  1  0.91102526  0.96049181  0.15082367  1
  Li  Li22  1  0.92644882  0.27231956  0.50000000  1
  Li  Li23  1  0.07355118  0.72768044  0.50000000  1
  Li  Li24  1  0.57355118  0.77231956  0.50000000  1
  Li  Li25  1  0.42644882  0.22768044  0.50000000  1
  Li  Li26  1  0.00000000  0.50000000  -0.00000000  1
  Li  Li27  1  0.50000000  0.00000000  0.00000000  1
