# generated using pymatgen
data_LiF
_symmetry_space_group_name_H-M   'P 1'
_cell_length_a   5.45874982
_cell_length_b   6.62753015
_cell_length_c   5.74437004
_cell_angle_alpha   90.00000000
_cell_angle_beta   90.00000000
_cell_angle_gamma   90.00000000
_symmetry_Int_Tables_number   1
_chemical_formula_structural   LiF
_chemical_formula_sum   'Li10 F10'
_cell_volume   207.81998622
_cell_formula_units_Z   10
loop_
 _symmetry_equiv_pos_site_id
 _symmetry_equiv_pos_as_xyz
  1  'x, y, z'
loop_
 _atom_site_type_symbol
 _atom_site_label
 _atom_site_symmetry_multiplicity
 _atom_site_fract_x
 _atom_site_fract_y
 _atom_site_fract_z
 _atom_site_occupancy
  F  F0  1  0.13629018  0.96338478  0.88119459  1
  F  F1  1  -0.13629018  -0.96338478  0.88119459  1
  F  F2  1  0.36370982  1.46338478  -0.88119459  1
  F  F3  1  0.63629018  -0.46338478  -0.88119459  1
  F  F4  1  -0.13629018  -0.96338478  -0.88119459  1
  F  F5  1  0.13629018  0.96338478  -0.88119459  1
  F  F6  1  0.63629018  -0.46338478  0.88119459  1
  F  F7  1  0.36370982  1.46338478  0.88119459  1
  F  F8  1  0.00000000  0.50000000  0.00000000  1
  F  F9  1  0.50000000  0.00000000  0.00000000  1
  Li  Li10  1  0.87738771  0.20846817  0.37696849  1
  Li  Li11  1  0.12261229  0.79153183  0.37696849  1
  Li  Li12  1  0.62261229  0.70846817  0.62303151  1
  Li  Li13  1  0.37738771  0.29153183  0.62303151  1
  Li  Li14  1  0.12261229  0.79153183  0.62303151  1
  Li  Li15  1  0.87738771  0.20846817  0.62303151  1
  Li  Li16  1  0.37738771  0.29153183  0.37696849  1
  Li  Li17  1  0.62261229  0.70846817  0.37696849  1
  Li  Li18  1  0.00000000  0.00000000  0.50000000  1
  Li  Li19  1  0.50000000  0.50000000  0.50000000  1
