# generated using pymatgen
data_Li2Y2As3P2Se
_symmetry_space_group_name_H-M   'P 1'
_cell_length_a   4.90897491
_cell_length_b   4.91784060
_cell_length_c   7.05882746
_cell_angle_alpha   94.94143340
_cell_angle_beta   100.76141463
_cell_angle_gamma   109.84777401
_symmetry_Int_Tables_number   1
_chemical_formula_structural   Li2Y2As3P2Se
_chemical_formula_sum   'Li2 Y2 As3 P2 Se1'
_cell_volume   155.39390201
_cell_formula_units_Z   1
loop_
 _symmetry_equiv_pos_site_id
 _symmetry_equiv_pos_as_xyz
  1  'x, y, z'
loop_
 _atom_site_type_symbol
 _atom_site_label
 _atom_site_symmetry_multiplicity
 _atom_site_fract_x
 _atom_site_fract_y
 _atom_site_fract_z
 _atom_site_occupancy
  Se  Se0  1  0.00000000  0.00000000  0.00000000  1
  P  P1  1  0.50000000  0.50000000  0.50000000  1
  P  P2  1  0.25000000  0.25000000  0.25000000  1
  As  As3  1  0.75000000  0.25000000  0.00000000  1
  As  As4  1  0.25000000  0.75000000  0.50000000  1
  As  As5  1  0.89013880  0.40421382  0.18558047  1
  Li  Li6  1  0.14670280  0.38852706  0.59198577  1
  Li  Li7  1  0.40116393  0.91064153  0.51449308  1
  Y  Y8  1  0.74775551  0.89700150  0.76242021  1
  Y  Y9  1  0.27655711  0.26035438  0.05821051  1
