# generated using pymatgen
data_LiF
_symmetry_space_group_name_H-M   'P 1'
_cell_length_a   11.42366403
_cell_length_b   8.76390106
_cell_length_c   7.74363815
_cell_angle_alpha   90.00000000
_cell_angle_beta   90.00000000
_cell_angle_gamma   90.00000000
_symmetry_Int_Tables_number   1
_chemical_formula_structural   LiF
_chemical_formula_sum   'Li24 F24'
_cell_volume   775.26100194
_cell_formula_units_Z   24
loop_
 _symmetry_equiv_pos_site_id
 _symmetry_equiv_pos_as_xyz
  1  'x, y, z'
loop_
 _atom_site_type_symbol
 _atom_site_label
 _atom_site_symmetry_multiplicity
 _atom_site_fract_x
 _atom_site_fract_y
 _atom_site_fract_z
 _atom_site_occupancy
  F  F0  1  0.24358260  0.98276640  0.73615116  1
  F  F1  1  0.25641740  0.01723360  0.23615116  1
  F  F2  1  0.75641740  0.48276640  0.26384884  1
  F  F3  1  0.74358260  0.51723360  0.76384884  1
  F  F4  1  0.75641740  0.01723360  0.26384884  1
  F  F5  1  0.74358260  0.98276640  0.76384884  1
  F  F6  1  0.24358260  0.51723360  0.73615116  1
  F  F7  1  0.25641740  0.48276640  0.23615116  1
  F  F8  1  0.73179466  0.47951112  0.88199822  1
  F  F9  1  0.76820534  0.52048888  0.38199822  1
  F  F10  1  0.26820534  0.97951112  0.11800178  1
  F  F11  1  0.23179466  0.02048888  0.61800178  1
  F  F12  1  0.26820534  0.52048888  0.11800178  1
  F  F13  1  0.23179466  0.47951112  0.61800178  1
  F  F14  1  0.73179466  0.02048888  0.88199822  1
  F  F15  1  0.76820534  0.97951112  0.38199822  1
  F  F16  1  0.27815941  0.56843218  0.90227215  1
  F  F17  1  0.22184059  0.43156782  0.40227215  1
  F  F18  1  0.72184059  0.06843218  0.09772785  1
  F  F19  1  0.77815941  0.93156782  0.59772785  1
  F  F20  1  0.72184059  0.43156782  0.09772785  1
  F  F21  1  0.77815941  0.56843218  0.59772785  1
  F  F22  1  0.27815941  0.93156782  0.90227215  1
  F  F23  1  0.22184059  0.06843218  0.40227215  1
  Li  Li24  1  0.34864259  0.83847887  0.06816373  1
  Li  Li25  1  0.15135741  -0.83847887  0.56816373  1
  Li  Li26  1  -0.34864259  1.33847887  -0.06816373  1
  Li  Li27  1  0.84864259  -0.33847887  0.43183627  1
  Li  Li28  1  -0.34864259  -0.83847887  -0.06816373  1
  Li  Li29  1  0.84864259  0.83847887  0.43183627  1
  Li  Li30  1  0.34864259  -0.33847887  0.06816373  1
  Li  Li31  1  0.15135741  1.33847887  0.56816373  1
  Li  Li32  1  0.40616626  0.25000000  0.66778914  1
  Li  Li33  1  0.09383374  0.75000000  0.16778914  1
  Li  Li34  1  0.59383374  0.75000000  0.33221086  1
  Li  Li35  1  0.90616626  0.25000000  0.83221086  1
  Li  Li36  1  0.16585219  0.02099226  0.12476801  1
  Li  Li37  1  0.33414781  0.97900774  0.62476801  1
  Li  Li38  1  0.83414781  0.52099226  0.87523199  1
  Li  Li39  1  0.66585219  0.47900774  0.37523199  1
  Li  Li40  1  0.83414781  0.97900774  0.87523199  1
  Li  Li41  1  0.66585219  0.02099226  0.37523199  1
  Li  Li42  1  0.16585219  0.47900774  0.12476801  1
  Li  Li43  1  0.33414781  0.52099226  0.62476801  1
  Li  Li44  1  0.92636182  0.25000000  0.66852229  1
  Li  Li45  1  0.57363818  0.75000000  0.16852229  1
  Li  Li46  1  0.07363818  0.75000000  0.33147771  1
  Li  Li47  1  0.42636182  0.25000000  0.83147771  1
