# generated using pymatgen
data_LiF
_symmetry_space_group_name_H-M   'P 1'
_cell_length_a   5.68847826
_cell_length_b   14.72690308
_cell_length_c   10.67901738
_cell_angle_alpha   90.00000000
_cell_angle_beta   90.00000000
_cell_angle_gamma   90.00000000
_symmetry_Int_Tables_number   1
_chemical_formula_structural   LiF
_chemical_formula_sum   'Li24 F24'
_cell_volume   894.62045650
_cell_formula_units_Z   24
loop_
 _symmetry_equiv_pos_site_id
 _symmetry_equiv_pos_as_xyz
  1  'x, y, z'
loop_
 _atom_site_type_symbol
 _atom_site_label
 _atom_site_symmetry_multiplicity
 _atom_site_fract_x
 _atom_site_fract_y
 _atom_site_fract_z
 _atom_site_occupancy
  F  F0  1  0.00000000  0.00000000  0.50000000  1
  F  F1  1  0.50000000  0.00000000  0.00000000  1
  F  F2  1  0.00000000  0.50000000  0.50000000  1
  F  F3  1  0.50000000  0.50000000  -0.00000000  1
  F  F4  1  0.25455161  0.85452258  0.76418161  1
  F  F5  1  0.24544839  0.14547742  0.26418161  1
  F  F6  1  0.74544839  0.35452258  0.23581839  1
  F  F7  1  0.75455161  0.64547742  0.73581839  1
  F  F8  1  0.74544839  0.14547742  0.23581839  1
  F  F9  1  0.75455161  0.85452258  0.73581839  1
  F  F10  1  0.25455161  0.64547742  0.76418161  1
  F  F11  1  0.24544839  0.35452258  0.26418161  1
  F  F12  1  0.35264112  0.33293578  0.23556437  1
  F  F13  1  0.14735888  0.66706422  0.73556437  1
  F  F14  1  0.64735888  0.83293578  0.76443563  1
  F  F15  1  0.85264112  0.16706422  0.26443563  1
  F  F16  1  0.64735888  0.66706422  0.76443563  1
  F  F17  1  0.85264112  0.33293578  0.26443563  1
  F  F18  1  0.35264112  0.16706422  0.23556437  1
  F  F19  1  0.14735888  0.83293578  0.73556437  1
  F  F20  1  0.00000000  0.00000000  0.00000000  1
  F  F21  1  0.50000000  0.00000000  0.50000000  1
  F  F22  1  0.00000000  0.50000000  -0.00000000  1
  F  F23  1  0.50000000  0.50000000  0.50000000  1
  Li  Li24  1  0.68009861  0.37672562  0.78620972  1
  Li  Li25  1  -0.18009861  -0.37672562  1.28620972  1
  Li  Li26  1  -0.68009861  0.87672562  -0.78620972  1
  Li  Li27  1  1.18009861  0.12327438  -0.28620972  1
  Li  Li28  1  -0.68009861  -0.37672562  -0.78620972  1
  Li  Li29  1  1.18009861  0.37672562  -0.28620972  1
  Li  Li30  1  0.68009861  0.12327438  0.78620972  1
  Li  Li31  1  -0.18009861  0.87672562  1.28620972  1
  Li  Li32  1  0.35558898  0.68387583  0.96137170  1
  Li  Li33  1  0.14441102  0.31612417  0.46137170  1
  Li  Li34  1  0.64441102  0.18387583  0.03862830  1
  Li  Li35  1  0.85558898  0.81612417  0.53862830  1
  Li  Li36  1  0.64441102  0.31612417  0.03862830  1
  Li  Li37  1  0.85558898  0.68387583  0.53862830  1
  Li  Li38  1  0.35558898  0.81612417  0.96137170  1
  Li  Li39  1  0.14441102  0.18387583  0.46137170  1
  Li  Li40  1  0.87669874  0.95673176  0.16840061  1
  Li  Li41  1  0.62330126  0.04326824  0.66840061  1
  Li  Li42  1  0.12330126  0.45673176  0.83159939  1
  Li  Li43  1  0.37669874  0.54326824  0.33159939  1
  Li  Li44  1  0.12330126  0.04326824  0.83159939  1
  Li  Li45  1  0.37669874  0.95673176  0.33159939  1
  Li  Li46  1  0.87669874  0.54326824  0.16840061  1
  Li  Li47  1  0.62330126  0.45673176  0.66840061  1
