# generated using pymatgen
data_LiF
_symmetry_space_group_name_H-M   'P 1'
_cell_length_a   11.38496381
_cell_length_b   8.97847122
_cell_length_c   8.48396820
_cell_angle_alpha   90.00000000
_cell_angle_beta   90.00000000
_cell_angle_gamma   90.00000000
_symmetry_Int_Tables_number   1
_chemical_formula_structural   LiF
_chemical_formula_sum   'Li24 F24'
_cell_volume   867.22758054
_cell_formula_units_Z   24
loop_
 _symmetry_equiv_pos_site_id
 _symmetry_equiv_pos_as_xyz
  1  'x, y, z'
loop_
 _atom_site_type_symbol
 _atom_site_label
 _atom_site_symmetry_multiplicity
 _atom_site_fract_x
 _atom_site_fract_y
 _atom_site_fract_z
 _atom_site_occupancy
  F  F0  1  0.98555078  0.14946762  0.60857303  1
  F  F1  1  0.51444922  0.85053238  0.10857303  1
  F  F2  1  0.01444922  0.64946762  0.39142697  1
  F  F3  1  0.48555078  0.35053238  0.89142697  1
  F  F4  1  0.01444922  0.85053238  0.39142697  1
  F  F5  1  0.48555078  0.14946762  0.89142697  1
  F  F6  1  0.98555078  0.35053238  0.60857303  1
  F  F7  1  0.51444922  0.64946762  0.10857303  1
  F  F8  1  0.06675455  0.25000000  0.16557341  1
  F  F9  1  0.43324545  0.75000000  0.66557341  1
  F  F10  1  0.93324545  0.75000000  0.83442659  1
  F  F11  1  0.56675455  0.25000000  0.33442659  1
  F  F12  1  0.00000000  0.00000000  0.50000000  1
  F  F13  1  0.50000000  0.00000000  0.00000000  1
  F  F14  1  0.00000000  0.50000000  0.50000000  1
  F  F15  1  0.50000000  0.50000000  0.00000000  1
  F  F16  1  0.00000000  0.00000000  0.00000000  1
  F  F17  1  0.50000000  0.00000000  0.50000000  1
  F  F18  1  0.00000000  0.50000000  0.00000000  1
  F  F19  1  0.50000000  0.50000000  0.50000000  1
  F  F20  1  0.51897738  0.25000000  0.48357839  1
  F  F21  1  0.98102262  0.75000000  0.98357839  1
  F  F22  1  0.48102262  0.75000000  0.51642161  1
  F  F23  1  0.01897738  0.25000000  0.01642161  1
  Li  Li24  1  0.66024043  0.49192048  0.87275470  1
  Li  Li25  1  -0.16024043  -0.49192048  1.37275470  1
  Li  Li26  1  -0.66024043  0.99192048  -0.87275470  1
  Li  Li27  1  1.16024043  0.00807952  -0.37275470  1
  Li  Li28  1  -0.66024043  -0.49192048  -0.87275470  1
  Li  Li29  1  1.16024043  0.49192048  -0.37275470  1
  Li  Li30  1  0.66024043  0.00807952  0.87275470  1
  Li  Li31  1  -0.16024043  0.99192048  1.37275470  1
  Li  Li32  1  0.36444900  0.55416702  0.38442731  1
  Li  Li33  1  0.13555100  0.44583298  0.88442731  1
  Li  Li34  1  0.63555100  0.05416702  0.61557269  1
  Li  Li35  1  0.86444900  0.94583298  0.11557269  1
  Li  Li36  1  0.63555100  0.44583298  0.61557269  1
  Li  Li37  1  0.86444900  0.55416702  0.11557269  1
  Li  Li38  1  0.36444900  0.94583298  0.38442731  1
  Li  Li39  1  0.13555100  0.05416702  0.88442731  1
  Li  Li40  1  0.30873905  0.02802230  0.71560462  1
  Li  Li41  1  0.19126095  0.97197770  0.21560462  1
  Li  Li42  1  0.69126095  0.52802230  0.28439538  1
  Li  Li43  1  0.80873905  0.47197770  0.78439538  1
  Li  Li44  1  0.69126095  0.97197770  0.28439538  1
  Li  Li45  1  0.80873905  0.02802230  0.78439538  1
  Li  Li46  1  0.30873905  0.47197770  0.71560462  1
  Li  Li47  1  0.19126095  0.52802230  0.21560462  1
