# generated using pymatgen
data_LiF
_symmetry_space_group_name_H-M   'P 1'
_cell_length_a   9.94616348
_cell_length_b   9.94616348
_cell_length_c   9.94616348
_cell_angle_alpha   90.00000000
_cell_angle_beta   90.00000000
_cell_angle_gamma   90.00000000
_symmetry_Int_Tables_number   1
_chemical_formula_structural   LiF
_chemical_formula_sum   'Li48 F48'
_cell_volume   983.93583799
_cell_formula_units_Z   48
loop_
 _symmetry_equiv_pos_site_id
 _symmetry_equiv_pos_as_xyz
  1  'x, y, z'
loop_
 _atom_site_type_symbol
 _atom_site_label
 _atom_site_symmetry_multiplicity
 _atom_site_fract_x
 _atom_site_fract_y
 _atom_site_fract_z
 _atom_site_occupancy
  F  F0  1  0.35729794  0.00000000  0.25000000  1
  F  F1  1  0.14270206  -0.00000000  0.75000000  1
  F  F2  1  0.25000000  0.35729794  -0.00000000  1
  F  F3  1  0.75000000  0.14270206  -0.00000000  1
  F  F4  1  0.00000000  0.25000000  0.35729794  1
  F  F5  1  0.00000000  0.75000000  0.14270206  1
  F  F6  1  0.75000000  0.60729794  -0.00000000  1
  F  F7  1  0.75000000  0.39270206  0.50000000  1
  F  F8  1  0.10729794  0.50000000  0.25000000  1
  F  F9  1  0.89270206  -0.00000000  0.25000000  1
  F  F10  1  0.00000000  0.25000000  0.89270206  1
  F  F11  1  0.50000000  0.25000000  0.10729794  1
  F  F12  1  0.85729794  0.50000000  0.75000000  1
  F  F13  1  0.64270206  0.50000000  0.25000000  1
  F  F14  1  0.75000000  0.85729794  0.50000000  1
  F  F15  1  0.25000000  0.64270206  0.50000000  1
  F  F16  1  0.50000000  0.75000000  0.85729794  1
  F  F17  1  0.50000000  0.25000000  0.64270206  1
  F  F18  1  0.25000000  0.10729794  0.50000000  1
  F  F19  1  0.25000000  0.89270206  -0.00000000  1
  F  F20  1  0.60729794  -0.00000000  0.75000000  1
  F  F21  1  0.39270206  0.50000000  0.75000000  1
  F  F22  1  0.50000000  0.75000000  0.39270206  1
  F  F23  1  0.00000000  0.75000000  0.60729794  1
  F  F24  1  0.12500000  0.00000000  0.25000000  1
  F  F25  1  0.37500000  -0.00000000  0.75000000  1
  F  F26  1  0.25000000  0.12500000  0.00000000  1
  F  F27  1  0.75000000  0.37500000  0.00000000  1
  F  F28  1  0.00000000  0.25000000  0.12500000  1
  F  F29  1  0.00000000  0.75000000  0.37500000  1
  F  F30  1  0.62500000  0.50000000  0.75000000  1
  F  F31  1  0.87500000  0.50000000  0.25000000  1
  F  F32  1  0.75000000  0.62500000  0.50000000  1
  F  F33  1  0.25000000  0.87500000  0.50000000  1
  F  F34  1  0.50000000  0.75000000  0.62500000  1
  F  F35  1  0.50000000  0.25000000  0.87500000  1
  F  F36  1  0.62500000  0.00000000  0.25000000  1
  F  F37  1  0.87500000  0.00000000  0.75000000  1
  F  F38  1  0.25000000  0.62500000  0.00000000  1
  F  F39  1  0.75000000  0.87500000  0.00000000  1
  F  F40  1  0.00000000  0.25000000  0.62500000  1
  F  F41  1  0.00000000  0.75000000  0.87500000  1
  F  F42  1  0.12500000  0.50000000  0.75000000  1
  F  F43  1  0.37500000  0.50000000  0.25000000  1
  F  F44  1  0.75000000  0.12500000  0.50000000  1
  F  F45  1  0.25000000  0.37500000  0.50000000  1
  F  F46  1  0.50000000  0.75000000  0.12500000  1
  F  F47  1  0.50000000  0.25000000  0.37500000  1
  Li  Li48  1  0.56640923  0.13499770  0.78155208  1
  Li  Li49  1  -0.06640923  -0.13499770  1.28155208  1
  Li  Li50  1  -0.56640923  0.63499770  -0.28155208  1
  Li  Li51  1  1.06640923  0.36500230  -0.78155208  1
  Li  Li52  1  0.78155208  0.56640923  0.13499770  1
  Li  Li53  1  1.28155208  -0.06640923  -0.13499770  1
  Li  Li54  1  -0.28155208  -0.56640923  0.63499770  1
  Li  Li55  1  -0.78155208  1.06640923  0.36500230  1
  Li  Li56  1  0.13499770  0.78155208  0.56640923  1
  Li  Li57  1  -0.13499770  1.28155208  -0.06640923  1
  Li  Li58  1  0.63499770  -0.28155208  -0.56640923  1
  Li  Li59  1  0.36500230  -0.78155208  1.06640923  1
  Li  Li60  1  0.88499770  0.81640923  -0.53155208  1
  Li  Li61  1  0.61500230  0.18359077  -0.03155208  1
  Li  Li62  1  0.38499770  -0.31640923  1.53155208  1
  Li  Li63  1  0.11500230  1.31640923  1.03155208  1
  Li  Li64  1  1.31640923  1.03155208  0.11500230  1
  Li  Li65  1  -0.31640923  1.53155208  0.38499770  1
  Li  Li66  1  0.18359077  -0.03155208  0.61500230  1
  Li  Li67  1  0.81640923  -0.53155208  0.88499770  1
  Li  Li68  1  1.53155208  0.38499770  -0.31640923  1
  Li  Li69  1  1.03155208  0.11500230  1.31640923  1
  Li  Li70  1  -0.53155208  0.88499770  0.81640923  1
  Li  Li71  1  -0.03155208  0.61500230  0.18359077  1
  Li  Li72  1  1.06640923  0.63499770  1.28155208  1
  Li  Li73  1  0.43359077  0.36500230  1.78155208  1
  Li  Li74  1  -0.06640923  1.13499770  0.21844792  1
  Li  Li75  1  1.56640923  0.86500230  -0.28155208  1
  Li  Li76  1  1.28155208  1.06640923  0.63499770  1
  Li  Li77  1  1.78155208  0.43359077  0.36500230  1
  Li  Li78  1  0.21844792  -0.06640923  1.13499770  1
  Li  Li79  1  -0.28155208  1.56640923  0.86500230  1
  Li  Li80  1  0.63499770  1.28155208  1.06640923  1
  Li  Li81  1  0.36500230  1.78155208  0.43359077  1
  Li  Li82  1  1.13499770  0.21844792  -0.06640923  1
  Li  Li83  1  0.86500230  -0.28155208  1.56640923  1
  Li  Li84  1  1.38499770  1.31640923  -0.03155208  1
  Li  Li85  1  1.11500230  0.68359077  0.46844792  1
  Li  Li86  1  0.88499770  0.18359077  2.03155208  1
  Li  Li87  1  0.61500230  1.81640923  1.53155208  1
  Li  Li88  1  1.81640923  1.53155208  0.61500230  1
  Li  Li89  1  0.18359077  2.03155208  0.88499770  1
  Li  Li90  1  0.68359077  0.46844792  1.11500230  1
  Li  Li91  1  1.31640923  -0.03155208  1.38499770  1
  Li  Li92  1  2.03155208  0.88499770  0.18359077  1
  Li  Li93  1  1.53155208  0.61500230  1.81640923  1
  Li  Li94  1  -0.03155208  1.38499770  1.31640923  1
  Li  Li95  1  0.46844792  1.11500230  0.68359077  1
