# generated using pymatgen
data_LiF
_symmetry_space_group_name_H-M   'P 1'
_cell_length_a   24.13249977
_cell_length_b   11.32631962
_cell_length_c   7.51110781
_cell_angle_alpha   90.00000000
_cell_angle_beta   90.00000000
_cell_angle_gamma   90.00000000
_symmetry_Int_Tables_number   1
_chemical_formula_structural   LiF
_chemical_formula_sum   'Li60 F60'
_cell_volume   2053.02916645
_cell_formula_units_Z   60
loop_
 _symmetry_equiv_pos_site_id
 _symmetry_equiv_pos_as_xyz
  1  'x, y, z'
loop_
 _atom_site_type_symbol
 _atom_site_label
 _atom_site_symmetry_multiplicity
 _atom_site_fract_x
 _atom_site_fract_y
 _atom_site_fract_z
 _atom_site_occupancy
  F  F0  1  0.21586032  0.06783222  0.03702363  1
  F  F1  1  0.28413968  0.93216778  0.53702363  1
  F  F2  1  0.78413968  0.56783222  0.96297637  1
  F  F3  1  0.71586032  0.43216778  0.46297637  1
  F  F4  1  0.78413968  0.93216778  0.96297637  1
  F  F5  1  0.71586032  0.06783222  0.46297637  1
  F  F6  1  0.21586032  0.43216778  0.03702363  1
  F  F7  1  0.28413968  0.56783222  0.53702363  1
  F  F8  1  0.00000000  0.00000000  0.50000000  1
  F  F9  1  0.50000000  0.00000000  0.00000000  1
  F  F10  1  0.00000000  0.50000000  0.50000000  1
  F  F11  1  0.50000000  0.50000000  0.00000000  1
  F  F12  1  0.87476994  0.97179673  0.48385346  1
  F  F13  1  0.62523006  0.02820327  0.98385346  1
  F  F14  1  0.12523006  0.47179673  0.51614654  1
  F  F15  1  0.37476994  0.52820327  0.01614654  1
  F  F16  1  0.12523006  0.02820327  0.51614654  1
  F  F17  1  0.37476994  0.97179673  0.01614654  1
  F  F18  1  0.87476994  0.52820327  0.48385346  1
  F  F19  1  0.62523006  0.47179673  0.98385346  1
  F  F20  1  0.70807866  0.32907616  0.26671663  1
  F  F21  1  0.79192134  0.67092384  0.76671663  1
  F  F22  1  0.29192134  0.82907616  0.73328337  1
  F  F23  1  0.20807866  0.17092384  0.23328337  1
  F  F24  1  0.29192134  0.67092384  0.73328337  1
  F  F25  1  0.20807866  0.32907616  0.23328337  1
  F  F26  1  0.70807866  0.17092384  0.26671663  1
  F  F27  1  0.79192134  0.82907616  0.76671663  1
  F  F28  1  0.95779953  0.79095761  0.12031478  1
  F  F29  1  0.54220047  0.20904239  0.62031478  1
  F  F30  1  0.04220047  0.29095761  0.87968522  1
  F  F31  1  0.45779953  0.70904239  0.37968522  1
  F  F32  1  0.04220047  0.20904239  0.87968522  1
  F  F33  1  0.45779953  0.79095761  0.37968522  1
  F  F34  1  0.95779953  0.70904239  0.12031478  1
  F  F35  1  0.54220047  0.29095761  0.62031478  1
  F  F36  1  0.09954791  0.15279430  0.13515762  1
  F  F37  1  0.40045209  0.84720570  0.63515762  1
  F  F38  1  0.90045209  0.65279430  0.86484238  1
  F  F39  1  0.59954791  0.34720570  0.36484238  1
  F  F40  1  0.90045209  0.84720570  0.86484238  1
  F  F41  1  0.59954791  0.15279430  0.36484238  1
  F  F42  1  0.09954791  0.34720570  0.13515762  1
  F  F43  1  0.40045209  0.65279430  0.63515762  1
  F  F44  1  0.94047025  0.66678961  0.83664464  1
  F  F45  1  0.55952975  0.33321039  0.33664464  1
  F  F46  1  0.05952975  0.16678961  0.16335536  1
  F  F47  1  0.44047025  0.83321039  0.66335536  1
  F  F48  1  0.05952975  0.33321039  0.16335536  1
  F  F49  1  0.44047025  0.66678961  0.66335536  1
  F  F50  1  0.94047025  0.83321039  0.83664464  1
  F  F51  1  0.55952975  0.16678961  0.33664464  1
  F  F52  1  0.69626080  0.31251287  0.33533619  1
  F  F53  1  0.80373920  0.68748713  0.83533619  1
  F  F54  1  0.30373920  0.81251287  0.66466381  1
  F  F55  1  0.19626080  0.18748713  0.16466381  1
  F  F56  1  0.30373920  0.68748713  0.66466381  1
  F  F57  1  0.19626080  0.31251287  0.16466381  1
  F  F58  1  0.69626080  0.18748713  0.33533619  1
  F  F59  1  0.80373920  0.81251287  0.83533619  1
  Li  Li60  1  0.03035925  0.25000000  0.26326729  1
  Li  Li61  1  0.46964075  0.75000000  0.76326729  1
  Li  Li62  1  0.96964075  0.75000000  0.73673271  1
  Li  Li63  1  0.53035925  0.25000000  0.23673271  1
  Li  Li64  1  0.16373614  0.56155580  0.52468475  1
  Li  Li65  1  0.33626386  -0.56155580  1.02468475  1
  Li  Li66  1  -0.16373614  1.06155580  -0.52468475  1
  Li  Li67  1  0.66373614  -0.06155580  -0.02468475  1
  Li  Li68  1  -0.16373614  -0.56155580  -0.52468475  1
  Li  Li69  1  0.66373614  0.56155580  -0.02468475  1
  Li  Li70  1  0.16373614  -0.06155580  0.52468475  1
  Li  Li71  1  0.33626386  1.06155580  1.02468475  1
  Li  Li72  1  0.37617958  0.37133444  0.67214148  1
  Li  Li73  1  0.12382042  0.62866556  0.17214148  1
  Li  Li74  1  0.62382042  0.87133444  0.32785852  1
  Li  Li75  1  0.87617958  0.12866556  0.82785852  1
  Li  Li76  1  0.62382042  0.62866556  0.32785852  1
  Li  Li77  1  0.87617958  0.37133444  0.82785852  1
  Li  Li78  1  0.37617958  0.12866556  0.67214148  1
  Li  Li79  1  0.12382042  0.87133444  0.17214148  1
  Li  Li80  1  0.00000000  0.00000000  0.00000000  1
  Li  Li81  1  0.50000000  0.00000000  0.50000000  1
  Li  Li82  1  0.00000000  0.50000000  0.00000000  1
  Li  Li83  1  0.50000000  0.50000000  0.50000000  1
  Li  Li84  1  0.34569942  0.25000000  0.19753452  1
  Li  Li85  1  0.15430058  0.75000000  0.69753452  1
  Li  Li86  1  0.65430058  0.75000000  0.80246548  1
  Li  Li87  1  0.84569942  0.25000000  0.30246548  1
  Li  Li88  1  0.80507520  0.56002151  0.56182071  1
  Li  Li89  1  0.69492480  0.43997849  0.06182071  1
  Li  Li90  1  0.19492480  0.06002151  0.43817929  1
  Li  Li91  1  0.30507520  0.93997849  0.93817929  1
  Li  Li92  1  0.19492480  0.43997849  0.43817929  1
  Li  Li93  1  0.30507520  0.56002151  0.93817929  1
  Li  Li94  1  0.80507520  0.93997849  0.56182071  1
  Li  Li95  1  0.69492480  0.06002151  0.06182071  1
  Li  Li96  1  0.13975920  0.57696315  0.68009305  1
  Li  Li97  1  0.36024080  0.42303685  0.18009305  1
  Li  Li98  1  0.86024080  0.07696315  0.31990695  1
  Li  Li99  1  0.63975920  0.92303685  0.81990695  1
  Li  Li100  1  0.86024080  0.42303685  0.31990695  1
  Li  Li101  1  0.63975920  0.57696315  0.81990695  1
  Li  Li102  1  0.13975920  0.92303685  0.68009305  1
  Li  Li103  1  0.36024080  0.07696315  0.18009305  1
  Li  Li104  1  0.16392707  0.07255385  0.71737928  1
  Li  Li105  1  0.33607293  0.92744615  0.21737928  1
  Li  Li106  1  0.83607293  0.57255385  0.28262072  1
  Li  Li107  1  0.66392707  0.42744615  0.78262072  1
  Li  Li108  1  0.83607293  0.92744615  0.28262072  1
  Li  Li109  1  0.66392707  0.07255385  0.78262072  1
  Li  Li110  1  0.16392707  0.42744615  0.71737928  1
  Li  Li111  1  0.33607293  0.57255385  0.21737928  1
  Li  Li112  1  0.74722558  0.45745231  0.58494477  1
  Li  Li113  1  0.75277442  0.54254769  0.08494477  1
  Li  Li114  1  0.25277442  0.95745231  0.41505523  1
  Li  Li115  1  0.24722558  0.04254769  0.91505523  1
  Li  Li116  1  0.25277442  0.54254769  0.41505523  1
  Li  Li117  1  0.24722558  0.45745231  0.91505523  1
  Li  Li118  1  0.74722558  0.04254769  0.58494477  1
  Li  Li119  1  0.75277442  0.95745231  0.08494477  1
