# generated using pymatgen
data_LiF
_symmetry_space_group_name_H-M   'P 1'
_cell_length_a   5.83948376
_cell_length_b   7.50360748
_cell_length_c   10.43509150
_cell_angle_alpha   90.00000000
_cell_angle_beta   90.00000000
_cell_angle_gamma   90.00000000
_symmetry_Int_Tables_number   1
_chemical_formula_structural   LiF
_chemical_formula_sum   'Li24 F24'
_cell_volume   457.23642842
_cell_formula_units_Z   24
loop_
 _symmetry_equiv_pos_site_id
 _symmetry_equiv_pos_as_xyz
  1  'x, y, z'
loop_
 _atom_site_type_symbol
 _atom_site_label
 _atom_site_symmetry_multiplicity
 _atom_site_fract_x
 _atom_site_fract_y
 _atom_site_fract_z
 _atom_site_occupancy
  F  F0  1  0.57545640  0.25000000  0.87274146  1
  F  F1  1  0.92454360  0.75000000  0.37274146  1
  F  F2  1  0.42454360  0.75000000  0.12725854  1
  F  F3  1  0.07545640  0.25000000  0.62725854  1
  F  F4  1  0.29784732  0.91251271  0.51621344  1
  F  F5  1  0.20215268  0.08748729  0.01621344  1
  F  F6  1  0.70215268  0.41251271  0.48378656  1
  F  F7  1  0.79784732  0.58748729  0.98378656  1
  F  F8  1  0.70215268  0.08748729  0.48378656  1
  F  F9  1  0.79784732  0.91251271  0.98378656  1
  F  F10  1  0.29784732  0.58748729  0.51621344  1
  F  F11  1  0.20215268  0.41251271  0.01621344  1
  F  F12  1  0.32818265  0.69162924  0.73706588  1
  F  F13  1  0.17181735  0.30837076  0.23706588  1
  F  F14  1  0.67181735  0.19162924  0.26293412  1
  F  F15  1  0.82818265  0.80837076  0.76293412  1
  F  F16  1  0.67181735  0.30837076  0.26293412  1
  F  F17  1  0.82818265  0.69162924  0.76293412  1
  F  F18  1  0.32818265  0.80837076  0.73706588  1
  F  F19  1  0.17181735  0.19162924  0.23706588  1
  F  F20  1  0.00000000  0.00000000  0.00000000  1
  F  F21  1  0.50000000  -0.00000000  0.50000000  1
  F  F22  1  0.00000000  0.50000000  0.00000000  1
  F  F23  1  0.50000000  0.50000000  0.50000000  1
  Li  Li24  1  0.49271942  0.06390753  0.72633266  1
  Li  Li25  1  0.00728058  -0.06390753  1.22633266  1
  Li  Li26  1  -0.49271942  0.56390753  -0.72633266  1
  Li  Li27  1  0.99271942  0.43609247  -0.22633266  1
  Li  Li28  1  -0.49271942  -0.06390753  -0.72633266  1
  Li  Li29  1  0.99271942  0.06390753  -0.22633266  1
  Li  Li30  1  0.49271942  0.43609247  0.72633266  1
  Li  Li31  1  0.00728058  0.56390753  1.22633266  1
  Li  Li32  1  0.13910474  0.25000000  0.43707759  1
  Li  Li33  1  0.36089526  0.75000000  0.93707759  1
  Li  Li34  1  0.86089526  0.75000000  0.56292241  1
  Li  Li35  1  0.63910474  0.25000000  0.06292241  1
  Li  Li36  1  0.70667270  0.40399739  0.95573457  1
  Li  Li37  1  0.79332730  0.59600261  0.45573457  1
  Li  Li38  1  0.29332730  0.90399739  0.04426543  1
  Li  Li39  1  0.20667270  0.09600261  0.54426543  1
  Li  Li40  1  0.29332730  0.59600261  0.04426543  1
  Li  Li41  1  0.20667270  0.40399739  0.54426543  1
  Li  Li42  1  0.70667270  0.09600261  0.95573457  1
  Li  Li43  1  0.79332730  0.90399739  0.45573457  1
  Li  Li44  1  0.00000000  0.00000000  0.50000000  1
  Li  Li45  1  0.50000000  -0.00000000  0.00000000  1
  Li  Li46  1  0.00000000  0.50000000  0.50000000  1
  Li  Li47  1  0.50000000  0.50000000  0.00000000  1
