# generated using pymatgen
data_LiF
_symmetry_space_group_name_H-M   'P 1'
_cell_length_a   7.18587959
_cell_length_b   7.18587959
_cell_length_c   11.92981381
_cell_angle_alpha   90.00000000
_cell_angle_beta   90.00000000
_cell_angle_gamma   120.00000000
_symmetry_Int_Tables_number   1
_chemical_formula_structural   LiF
_chemical_formula_sum   'Li28 F28'
_cell_volume   533.48740294
_cell_formula_units_Z   28
loop_
 _symmetry_equiv_pos_site_id
 _symmetry_equiv_pos_as_xyz
  1  'x, y, z'
loop_
 _atom_site_type_symbol
 _atom_site_label
 _atom_site_symmetry_multiplicity
 _atom_site_fract_x
 _atom_site_fract_y
 _atom_site_fract_z
 _atom_site_occupancy
  F  F0  1  0.33333333  0.66666667  0.50000000  1
  F  F1  1  0.66666667  0.33333333  0.59081402  1
  F  F2  1  0.66666667  0.33333333  0.40918598  1
  F  F3  1  0.66666667  0.33333333  0.93684842  1
  F  F4  1  0.66666667  0.33333333  0.06315158  1
  F  F5  1  0.95967370  0.04032630  -0.00000000  1
  F  F6  1  0.95967370  0.91934739  -0.00000000  1
  F  F7  1  0.08065261  0.04032630  -0.00000000  1
  F  F8  1  0.01053762  0.64906182  0.47533501  1
  F  F9  1  0.35093818  0.36147580  0.47533501  1
  F  F10  1  0.63852420  0.98946238  0.47533501  1
  F  F11  1  0.35093818  0.98946238  0.52466499  1
  F  F12  1  0.63852420  0.64906182  0.52466499  1
  F  F13  1  0.01053762  0.36147580  0.52466499  1
  F  F14  1  0.58146924  0.96327215  0.59312109  1
  F  F15  1  0.03672785  0.61819709  0.59312109  1
  F  F16  1  0.38180291  0.41853076  0.59312109  1
  F  F17  1  0.03672785  0.41853076  0.40687891  1
  F  F18  1  0.38180291  0.96327215  0.40687891  1
  F  F19  1  0.58146924  0.61819709  0.40687891  1
  F  F20  1  0.50171974  0.44723423  0.38650820  1
  F  F21  1  0.55276577  0.05448550  0.38650820  1
  F  F22  1  0.94551450  0.49828026  0.38650820  1
  F  F23  1  0.55276577  0.49828026  0.61349180  1
  F  F24  1  0.94551450  0.44723423  0.61349180  1
  F  F25  1  0.50171974  0.05448550  0.61349180  1
  F  F26  1  0.66666667  0.33333333  0.25280506  1
  F  F27  1  0.66666667  0.33333333  0.74719494  1
  Li  Li28  1  0.66666667  0.33333333  0.50000000  1
  Li  Li29  1  0.35683151  0.31197436  0.65592251  1
  Li  Li30  1  -0.31197436  0.04485716  0.65592251  1
  Li  Li31  1  -0.04485716  -0.35683151  0.65592251  1
  Li  Li32  1  -0.31197436  -0.35683151  -0.65592251  1
  Li  Li33  1  -0.04485716  0.31197436  -0.65592251  1
  Li  Li34  1  0.35683151  0.04485716  -0.65592251  1
  Li  Li35  1  0.33333333  0.66666667  0.00000000  1
  Li  Li36  1  0.08286683  0.92837476  0.94253571  1
  Li  Li37  1  0.07162524  0.15449206  0.94253571  1
  Li  Li38  1  0.84550794  0.91713317  0.94253571  1
  Li  Li39  1  0.07162524  0.91713317  0.05746429  1
  Li  Li40  1  0.84550794  0.92837476  0.05746429  1
  Li  Li41  1  0.08286683  0.15449206  0.05746429  1
  Li  Li42  1  0.33333333  0.66666667  0.17648298  1
  Li  Li43  1  0.33333333  0.66666667  0.82351702  1
  Li  Li44  1  0.22583383  0.36992311  0.21739069  1
  Li  Li45  1  0.63007689  0.85591072  0.21739069  1
  Li  Li46  1  0.14408928  0.77416617  0.21739069  1
  Li  Li47  1  0.63007689  0.77416617  0.78260931  1
  Li  Li48  1  0.14408928  0.36992311  0.78260931  1
  Li  Li49  1  0.22583383  0.85591072  0.78260931  1
  Li  Li50  1  0.29691475  0.46066251  0.68586666  1
  Li  Li51  1  0.53933749  0.83625224  0.68586666  1
  Li  Li52  1  0.16374776  0.70308525  0.68586666  1
  Li  Li53  1  0.53933749  0.70308525  0.31413334  1
  Li  Li54  1  0.16374776  0.46066251  0.31413334  1
  Li  Li55  1  0.29691475  0.83625224  0.31413334  1
