# generated using pymatgen
data_LiF
_symmetry_space_group_name_H-M   'P 1'
_cell_length_a   9.77587736
_cell_length_b   8.37481412
_cell_length_c   8.40573958
_cell_angle_alpha   90.00000000
_cell_angle_beta   90.00000000
_cell_angle_gamma   90.00000000
_symmetry_Int_Tables_number   1
_chemical_formula_structural   LiF
_chemical_formula_sum   'Li24 F24'
_cell_volume   688.18761510
_cell_formula_units_Z   24
loop_
 _symmetry_equiv_pos_site_id
 _symmetry_equiv_pos_as_xyz
  1  'x, y, z'
loop_
 _atom_site_type_symbol
 _atom_site_label
 _atom_site_symmetry_multiplicity
 _atom_site_fract_x
 _atom_site_fract_y
 _atom_site_fract_z
 _atom_site_occupancy
  F  F0  1  0.05957352  0.25000000  0.41540366  1
  F  F1  1  0.44042648  0.75000000  0.91540366  1
  F  F2  1  0.94042648  0.75000000  0.58459634  1
  F  F3  1  0.55957352  0.25000000  0.08459634  1
  F  F4  1  0.79023943  0.25000000  0.83227394  1
  F  F5  1  0.70976057  0.75000000  0.33227394  1
  F  F6  1  0.20976057  0.75000000  0.16772606  1
  F  F7  1  0.29023943  0.25000000  0.66772606  1
  F  F8  1  0.74177337  0.97265500  0.00525628  1
  F  F9  1  0.75822663  0.02734500  0.50525628  1
  F  F10  1  0.25822663  0.47265500  0.99474372  1
  F  F11  1  0.24177337  0.52734500  0.49474372  1
  F  F12  1  0.25822663  0.02734500  0.99474372  1
  F  F13  1  0.24177337  0.97265500  0.49474372  1
  F  F14  1  0.74177337  0.52734500  0.00525628  1
  F  F15  1  0.75822663  0.47265500  0.50525628  1
  F  F16  1  0.24960073  0.91702302  0.34579313  1
  F  F17  1  0.25039927  0.08297698  0.84579313  1
  F  F18  1  0.75039927  0.41702302  0.65420687  1
  F  F19  1  0.74960073  0.58297698  0.15420687  1
  F  F20  1  0.75039927  0.08297698  0.65420687  1
  F  F21  1  0.74960073  0.91702302  0.15420687  1
  F  F22  1  0.24960073  0.58297698  0.34579313  1
  F  F23  1  0.25039927  0.41702302  0.84579313  1
  Li  Li24  1  0.43489079  0.12774242  0.08805951  1
  Li  Li25  1  0.06510921  -0.12774242  0.58805951  1
  Li  Li26  1  -0.43489079  0.62774242  -0.08805951  1
  Li  Li27  1  0.93489079  0.37225758  0.41194049  1
  Li  Li28  1  -0.43489079  -0.12774242  -0.08805951  1
  Li  Li29  1  0.93489079  0.12774242  0.41194049  1
  Li  Li30  1  0.43489079  0.37225758  0.08805951  1
  Li  Li31  1  0.06510921  0.62774242  0.58805951  1
  Li  Li32  1  0.00000000  0.00000000  0.00000000  1
  Li  Li33  1  0.50000000  -0.00000000  0.50000000  1
  Li  Li34  1  0.00000000  0.50000000  0.00000000  1
  Li  Li35  1  0.50000000  0.50000000  0.50000000  1
  Li  Li36  1  0.15103773  0.35226910  0.11734585  1
  Li  Li37  1  0.34896227  0.64773090  0.61734585  1
  Li  Li38  1  0.84896227  0.85226910  0.88265415  1
  Li  Li39  1  0.65103773  0.14773090  0.38265415  1
  Li  Li40  1  0.84896227  0.64773090  0.88265415  1
  Li  Li41  1  0.65103773  0.35226910  0.38265415  1
  Li  Li42  1  0.15103773  0.14773090  0.11734585  1
  Li  Li43  1  0.34896227  0.85226910  0.61734585  1
  Li  Li44  1  0.00000000  0.00000000  0.50000000  1
  Li  Li45  1  0.50000000  -0.00000000  0.00000000  1
  Li  Li46  1  0.00000000  0.50000000  0.50000000  1
  Li  Li47  1  0.50000000  0.50000000  -0.00000000  1
