# generated using pymatgen
data_LiF
_symmetry_space_group_name_H-M   'P 1'
_cell_length_a   5.31962238
_cell_length_b   12.05087986
_cell_length_c   8.43872096
_cell_angle_alpha   90.00000000
_cell_angle_beta   90.00000000
_cell_angle_gamma   90.00000000
_symmetry_Int_Tables_number   1
_chemical_formula_structural   LiF
_chemical_formula_sum   'Li24 F24'
_cell_volume   540.97374419
_cell_formula_units_Z   24
loop_
 _symmetry_equiv_pos_site_id
 _symmetry_equiv_pos_as_xyz
  1  'x, y, z'
loop_
 _atom_site_type_symbol
 _atom_site_label
 _atom_site_symmetry_multiplicity
 _atom_site_fract_x
 _atom_site_fract_y
 _atom_site_fract_z
 _atom_site_occupancy
  F  F0  1  0.00000000  0.00000000  0.00000000  1
  F  F1  1  0.50000000  0.00000000  0.50000000  1
  F  F2  1  0.00000000  0.50000000  0.00000000  1
  F  F3  1  0.50000000  0.50000000  0.50000000  1
  F  F4  1  0.59848707  0.25000000  0.50116877  1
  F  F5  1  0.90151293  0.75000000  0.00116877  1
  F  F6  1  0.40151293  0.75000000  0.49883123  1
  F  F7  1  0.09848707  0.25000000  0.99883123  1
  F  F8  1  0.18257429  0.99430109  0.76997270  1
  F  F9  1  0.31742571  0.00569891  0.26997270  1
  F  F10  1  0.81742571  0.49430109  0.23002730  1
  F  F11  1  0.68257429  0.50569891  0.73002730  1
  F  F12  1  0.81742571  0.00569891  0.23002730  1
  F  F13  1  0.68257429  0.99430109  0.73002730  1
  F  F14  1  0.18257429  0.50569891  0.76997270  1
  F  F15  1  0.31742571  0.49430109  0.26997270  1
  F  F16  1  0.88803480  0.25000000  0.73700925  1
  F  F17  1  0.61196520  0.75000000  0.23700925  1
  F  F18  1  0.11196520  0.75000000  0.26299075  1
  F  F19  1  0.38803480  0.25000000  0.76299075  1
  F  F20  1  0.96313136  0.25000000  0.05466114  1
  F  F21  1  0.53686864  0.75000000  0.55466114  1
  F  F22  1  0.03686864  0.75000000  0.94533886  1
  F  F23  1  0.46313136  0.25000000  0.44533886  1
  Li  Li24  1  0.31136296  0.09833133  0.17248447  1
  Li  Li25  1  0.18863704  -0.09833133  0.67248447  1
  Li  Li26  1  -0.31136296  0.59833133  -0.17248447  1
  Li  Li27  1  0.81136296  0.40166867  0.32751553  1
  Li  Li28  1  -0.31136296  -0.09833133  -0.17248447  1
  Li  Li29  1  0.81136296  0.09833133  0.32751553  1
  Li  Li30  1  0.31136296  0.40166867  0.17248447  1
  Li  Li31  1  0.18863704  0.59833133  0.67248447  1
  Li  Li32  1  0.57893807  0.25000000  0.91933451  1
  Li  Li33  1  0.92106193  0.75000000  0.41933451  1
  Li  Li34  1  0.42106193  0.75000000  0.08066549  1
  Li  Li35  1  0.07893807  0.25000000  0.58066549  1
  Li  Li36  1  0.03128479  0.30879199  0.38065194  1
  Li  Li37  1  0.46871521  0.69120801  0.88065194  1
  Li  Li38  1  0.96871521  0.80879199  0.61934806  1
  Li  Li39  1  0.53128479  0.19120801  0.11934806  1
  Li  Li40  1  0.96871521  0.69120801  0.61934806  1
  Li  Li41  1  0.53128479  0.30879199  0.11934806  1
  Li  Li42  1  0.03128479  0.19120801  0.38065194  1
  Li  Li43  1  0.46871521  0.80879199  0.88065194  1
  Li  Li44  1  0.00000000  0.00000000  0.50000000  1
  Li  Li45  1  0.50000000  0.00000000  -0.00000000  1
  Li  Li46  1  0.00000000  0.50000000  0.50000000  1
  Li  Li47  1  0.50000000  0.50000000  0.00000000  1
