# generated using pymatgen
data_LiF
_symmetry_space_group_name_H-M   'P 1'
_cell_length_a   8.64772709
_cell_length_b   7.12422314
_cell_length_c   9.33503452
_cell_angle_alpha   90.00000000
_cell_angle_beta   90.00000000
_cell_angle_gamma   90.00000000
_symmetry_Int_Tables_number   1
_chemical_formula_structural   LiF
_chemical_formula_sum   'Li16 F16'
_cell_volume   575.11595688
_cell_formula_units_Z   16
loop_
 _symmetry_equiv_pos_site_id
 _symmetry_equiv_pos_as_xyz
  1  'x, y, z'
loop_
 _atom_site_type_symbol
 _atom_site_label
 _atom_site_symmetry_multiplicity
 _atom_site_fract_x
 _atom_site_fract_y
 _atom_site_fract_z
 _atom_site_occupancy
  F  F0  1  0.00000000  0.00000000  0.50000000  1
  F  F1  1  0.50000000  0.50000000  0.00000000  1
  F  F2  1  0.78712630  0.33023598  0.11246462  1
  F  F3  1  -0.78712630  -0.33023598  0.11246462  1
  F  F4  1  -0.28712630  0.83023598  0.38753538  1
  F  F5  1  1.28712630  0.16976402  0.38753538  1
  F  F6  1  -0.78712630  -0.33023598  -0.11246462  1
  F  F7  1  0.78712630  0.33023598  -0.11246462  1
  F  F8  1  1.28712630  0.16976402  0.61246462  1
  F  F9  1  -0.28712630  0.83023598  0.61246462  1
  F  F10  1  0.00000000  0.50000000  0.50000000  1
  F  F11  1  0.50000000  -0.00000000  0.00000000  1
  F  F12  1  0.00000000  0.00000000  0.00000000  1
  F  F13  1  0.50000000  0.50000000  0.50000000  1
  F  F14  1  0.00000000  0.50000000  0.00000000  1
  F  F15  1  0.50000000  -0.00000000  0.50000000  1
  Li  Li16  1  0.13960508  0.35559872  0.07806986  1
  Li  Li17  1  0.86039492  0.64440128  0.07806986  1
  Li  Li18  1  0.36039492  0.85559872  0.42193014  1
  Li  Li19  1  0.63960508  0.14440128  0.42193014  1
  Li  Li20  1  0.86039492  0.64440128  0.92193014  1
  Li  Li21  1  0.13960508  0.35559872  0.92193014  1
  Li  Li22  1  0.63960508  0.14440128  0.57806986  1
  Li  Li23  1  0.36039492  0.85559872  0.57806986  1
  Li  Li24  1  0.97142107  0.59724496  0.82293763  1
  Li  Li25  1  0.02857893  0.40275504  0.82293763  1
  Li  Li26  1  0.52857893  0.09724496  0.67706237  1
  Li  Li27  1  0.47142107  0.90275504  0.67706237  1
  Li  Li28  1  0.02857893  0.40275504  0.17706237  1
  Li  Li29  1  0.97142107  0.59724496  0.17706237  1
  Li  Li30  1  0.47142107  0.90275504  0.32293763  1
  Li  Li31  1  0.52857893  0.09724496  0.32293763  1
