# generated using pymatgen
data_LiF
_symmetry_space_group_name_H-M   'P 1'
_cell_length_a   12.85171623
_cell_length_b   5.64858974
_cell_length_c   8.75471087
_cell_angle_alpha   90.00000000
_cell_angle_beta   90.00000000
_cell_angle_gamma   90.00000000
_symmetry_Int_Tables_number   1
_chemical_formula_structural   LiF
_chemical_formula_sum   'Li24 F24'
_cell_volume   635.54011542
_cell_formula_units_Z   24
loop_
 _symmetry_equiv_pos_site_id
 _symmetry_equiv_pos_as_xyz
  1  'x, y, z'
loop_
 _atom_site_type_symbol
 _atom_site_label
 _atom_site_symmetry_multiplicity
 _atom_site_fract_x
 _atom_site_fract_y
 _atom_site_fract_z
 _atom_site_occupancy
  F  F0  1  0.95448775  0.25000000  0.25728525  1
  F  F1  1  0.54551225  0.75000000  0.75728525  1
  F  F2  1  0.04551225  0.75000000  0.74271475  1
  F  F3  1  0.45448775  0.25000000  0.24271475  1
  F  F4  1  0.81637548  0.33410006  0.40371757  1
  F  F5  1  0.68362452  0.66589994  0.90371757  1
  F  F6  1  0.18362452  0.83410006  0.59628243  1
  F  F7  1  0.31637548  0.16589994  0.09628243  1
  F  F8  1  0.18362452  0.66589994  0.59628243  1
  F  F9  1  0.31637548  0.33410006  0.09628243  1
  F  F10  1  0.81637548  0.16589994  0.40371757  1
  F  F11  1  0.68362452  0.83410006  0.90371757  1
  F  F12  1  0.57527501  0.93683192  0.10960320  1
  F  F13  1  0.92472499  0.06316808  0.60960320  1
  F  F14  1  0.42472499  0.43683192  0.89039680  1
  F  F15  1  0.07527501  0.56316808  0.39039680  1
  F  F16  1  0.42472499  0.06316808  0.89039680  1
  F  F17  1  0.07527501  0.93683192  0.39039680  1
  F  F18  1  0.57527501  0.56316808  0.10960320  1
  F  F19  1  0.92472499  0.43683192  0.60960320  1
  F  F20  1  0.00114820  0.25000000  0.40298769  1
  F  F21  1  0.49885180  0.75000000  0.90298769  1
  F  F22  1  0.99885180  0.75000000  0.59701231  1
  F  F23  1  0.50114820  0.25000000  0.09701231  1
  Li  Li24  1  0.51921378  0.25000000  0.43067765  1
  Li  Li25  1  0.98078622  0.75000000  0.93067765  1
  Li  Li26  1  0.48078622  0.75000000  0.56932235  1
  Li  Li27  1  0.01921378  0.25000000  0.06932235  1
  Li  Li28  1  0.00000000  0.00000000  0.50000000  1
  Li  Li29  1  0.50000000  0.00000000  0.00000000  1
  Li  Li30  1  0.00000000  0.50000000  0.50000000  1
  Li  Li31  1  0.50000000  0.50000000  0.00000000  1
  Li  Li32  1  0.00000000  0.00000000  0.00000000  1
  Li  Li33  1  0.50000000  0.00000000  0.50000000  1
  Li  Li34  1  0.00000000  0.50000000  0.00000000  1
  Li  Li35  1  0.50000000  0.50000000  0.50000000  1
  Li  Li36  1  0.63661438  0.06362921  0.30468883  1
  Li  Li37  1  -0.13661438  -0.06362921  0.80468883  1
  Li  Li38  1  -0.63661438  0.56362921  -0.30468883  1
  Li  Li39  1  1.13661438  0.43637079  0.19531117  1
  Li  Li40  1  -0.63661438  -0.06362921  -0.30468883  1
  Li  Li41  1  1.13661438  0.06362921  0.19531117  1
  Li  Li42  1  0.63661438  0.43637079  0.30468883  1
  Li  Li43  1  -0.13661438  0.56362921  0.80468883  1
  Li  Li44  1  0.32039460  0.25000000  0.57445841  1
  Li  Li45  1  0.17960540  0.75000000  0.07445841  1
  Li  Li46  1  0.67960540  0.75000000  0.42554159  1
  Li  Li47  1  0.82039460  0.25000000  0.92554159  1
