# generated using pymatgen
data_LiF
_symmetry_space_group_name_H-M   'P 1'
_cell_length_a   10.73958479
_cell_length_b   5.77890384
_cell_length_c   9.34230581
_cell_angle_alpha   90.00000000
_cell_angle_beta   90.00000000
_cell_angle_gamma   90.00000000
_symmetry_Int_Tables_number   1
_chemical_formula_structural   LiF
_chemical_formula_sum   'Li20 F20'
_cell_volume   579.81178494
_cell_formula_units_Z   20
loop_
 _symmetry_equiv_pos_site_id
 _symmetry_equiv_pos_as_xyz
  1  'x, y, z'
loop_
 _atom_site_type_symbol
 _atom_site_label
 _atom_site_symmetry_multiplicity
 _atom_site_fract_x
 _atom_site_fract_y
 _atom_site_fract_z
 _atom_site_occupancy
  F  F0  1  0.55395751  0.53120117  0.00000000  1
  F  F1  1  0.44604249  0.46879883  -0.00000000  1
  F  F2  1  0.94604249  0.03120117  -0.00000000  1
  F  F3  1  0.05395751  0.96879883  -0.00000000  1
  F  F4  1  0.46076029  0.26330059  0.43709996  1
  F  F5  1  -0.46076029  -0.26330059  0.43709996  1
  F  F6  1  0.03923971  0.76330059  -0.43709996  1
  F  F7  1  0.96076029  0.23669941  -0.43709996  1
  F  F8  1  -0.46076029  -0.26330059  -0.43709996  1
  F  F9  1  0.46076029  0.26330059  -0.43709996  1
  F  F10  1  0.96076029  0.23669941  0.43709996  1
  F  F11  1  0.03923971  0.76330059  0.43709996  1
  F  F12  1  0.15199103  0.98194640  0.57577698  1
  F  F13  1  0.84800897  0.01805360  0.57577698  1
  F  F14  1  0.34800897  0.48194640  0.42422302  1
  F  F15  1  0.65199103  0.51805360  0.42422302  1
  F  F16  1  0.84800897  0.01805360  0.42422302  1
  F  F17  1  0.15199103  0.98194640  0.42422302  1
  F  F18  1  0.65199103  0.51805360  0.57577698  1
  F  F19  1  0.34800897  0.48194640  0.57577698  1
  Li  Li20  1  0.00000000  0.50000000  0.50000000  1
  Li  Li21  1  0.50000000  0.00000000  0.50000000  1
  Li  Li22  1  0.33372548  0.23800903  0.09413662  1
  Li  Li23  1  0.66627452  0.76199097  0.09413662  1
  Li  Li24  1  0.16627452  0.73800903  0.90586338  1
  Li  Li25  1  0.83372548  0.26199097  0.90586338  1
  Li  Li26  1  0.66627452  0.76199097  0.90586338  1
  Li  Li27  1  0.33372548  0.23800903  0.90586338  1
  Li  Li28  1  0.83372548  0.26199097  0.09413662  1
  Li  Li29  1  0.16627452  0.73800903  0.09413662  1
  Li  Li30  1  0.98498873  0.26624654  0.28570048  1
  Li  Li31  1  0.01501127  0.73375346  0.28570048  1
  Li  Li32  1  0.51501127  0.76624654  0.71429952  1
  Li  Li33  1  0.48498873  0.23375346  0.71429952  1
  Li  Li34  1  0.01501127  0.73375346  0.71429952  1
  Li  Li35  1  0.98498873  0.26624654  0.71429952  1
  Li  Li36  1  0.48498873  0.23375346  0.28570048  1
  Li  Li37  1  0.51501127  0.76624654  0.28570048  1
  Li  Li38  1  0.00000000  0.50000000  0.00000000  1
  Li  Li39  1  0.50000000  0.00000000  0.00000000  1
