# generated using pymatgen
data_LiF
_symmetry_space_group_name_H-M   'P 1'
_cell_length_a   10.98994202
_cell_length_b   10.98994202
_cell_length_c   7.11722339
_cell_angle_alpha   90.00000000
_cell_angle_beta   90.00000000
_cell_angle_gamma   90.00000000
_symmetry_Int_Tables_number   1
_chemical_formula_structural   LiF
_chemical_formula_sum   'Li64 F64'
_cell_volume   859.60988264
_cell_formula_units_Z   64
loop_
 _symmetry_equiv_pos_site_id
 _symmetry_equiv_pos_as_xyz
  1  'x, y, z'
loop_
 _atom_site_type_symbol
 _atom_site_label
 _atom_site_symmetry_multiplicity
 _atom_site_fract_x
 _atom_site_fract_y
 _atom_site_fract_z
 _atom_site_occupancy
  F  F0  1  0.00000000  0.00000000  0.00000000  1
  F  F1  1  0.50000000  0.00000000  0.50000000  1
  F  F2  1  0.25000000  0.75000000  0.25000000  1
  F  F3  1  0.25000000  0.25000000  0.75000000  1
  F  F4  1  0.50000000  0.00000000  0.00000000  1
  F  F5  1  0.00000000  0.00000000  0.50000000  1
  F  F6  1  0.25000000  0.75000000  0.75000000  1
  F  F7  1  0.25000000  0.25000000  0.25000000  1
  F  F8  1  0.50000000  0.50000000  0.50000000  1
  F  F9  1  0.00000000  0.50000000  0.00000000  1
  F  F10  1  0.75000000  0.25000000  0.75000000  1
  F  F11  1  0.75000000  0.75000000  0.25000000  1
  F  F12  1  0.00000000  0.50000000  0.50000000  1
  F  F13  1  0.50000000  0.50000000  0.00000000  1
  F  F14  1  0.75000000  0.25000000  0.25000000  1
  F  F15  1  0.75000000  0.75000000  0.75000000  1
  F  F16  1  0.00000000  0.25000000  0.37500000  1
  F  F17  1  0.00000000  0.75000000  0.62500000  1
  F  F18  1  0.50000000  0.25000000  0.62500000  1
  F  F19  1  0.50000000  0.75000000  0.37500000  1
  F  F20  1  0.50000000  0.75000000  0.87500000  1
  F  F21  1  0.50000000  0.25000000  0.12500000  1
  F  F22  1  0.00000000  0.75000000  0.12500000  1
  F  F23  1  0.00000000  0.25000000  0.87500000  1
  F  F24  1  0.69315528  0.19991455  0.58766467  1
  F  F25  1  0.80684472  0.80008545  0.08766467  1
  F  F26  1  0.05008545  0.44315528  0.83766467  1
  F  F27  1  0.44991455  0.55684472  0.33766467  1
  F  F28  1  0.80684472  0.19991455  0.41233533  1
  F  F29  1  0.69315528  0.80008545  0.91233533  1
  F  F30  1  0.44991455  0.44315528  0.16233533  1
  F  F31  1  0.05008545  0.55684472  0.66233533  1
  F  F32  1  0.30684472  0.80008545  0.41233533  1
  F  F33  1  0.19315528  0.19991455  0.91233533  1
  F  F34  1  0.94991455  0.55684472  0.16233533  1
  F  F35  1  0.55008545  0.44315528  0.66233533  1
  F  F36  1  0.19315528  0.80008545  0.58766467  1
  F  F37  1  0.30684472  0.19991455  0.08766467  1
  F  F38  1  0.55008545  0.55684472  0.83766467  1
  F  F39  1  0.94991455  0.44315528  0.33766467  1
  F  F40  1  0.19315528  0.69991455  0.08766467  1
  F  F41  1  0.30684472  0.30008545  0.58766467  1
  F  F42  1  0.55008545  0.94315528  0.33766467  1
  F  F43  1  0.94991455  0.05684472  0.83766467  1
  F  F44  1  0.30684472  0.69991455  0.91233533  1
  F  F45  1  0.19315528  0.30008545  0.41233533  1
  F  F46  1  0.94991455  0.94315528  0.66233533  1
  F  F47  1  0.55008545  0.05684472  0.16233533  1
  F  F48  1  0.80684472  0.30008545  0.91233533  1
  F  F49  1  0.69315528  0.69991455  0.41233533  1
  F  F50  1  0.44991455  0.05684472  0.66233533  1
  F  F51  1  0.05008545  0.94315528  0.16233533  1
  F  F52  1  0.69315528  0.30008545  0.08766467  1
  F  F53  1  0.80684472  0.69991455  0.58766467  1
  F  F54  1  0.05008545  0.05684472  0.33766467  1
  F  F55  1  0.44991455  0.94315528  0.83766467  1
  F  F56  1  0.00000000  0.25000000  0.12500000  1
  F  F57  1  0.00000000  0.75000000  0.37500000  1
  F  F58  1  0.00000000  0.75000000  0.87500000  1
  F  F59  1  0.00000000  0.25000000  0.62500000  1
  F  F60  1  0.50000000  0.75000000  0.62500000  1
  F  F61  1  0.50000000  0.25000000  0.87500000  1
  F  F62  1  0.50000000  0.25000000  0.37500000  1
  F  F63  1  0.50000000  0.75000000  0.12500000  1
  Li  Li64  1  0.47446798  0.15306903  0.20977870  1
  Li  Li65  1  0.02553202  -0.15306903  0.70977870  1
  Li  Li66  1  0.09693097  1.22446798  0.45977870  1
  Li  Li67  1  0.40306903  -0.22446798  0.95977870  1
  Li  Li68  1  0.02553202  0.15306903  -0.20977870  1
  Li  Li69  1  0.47446798  -0.15306903  0.29022130  1
  Li  Li70  1  0.40306903  1.22446798  0.54022130  1
  Li  Li71  1  0.09693097  -0.22446798  0.04022130  1
  Li  Li72  1  -0.47446798  -0.15306903  -0.20977870  1
  Li  Li73  1  0.97446798  0.15306903  0.29022130  1
  Li  Li74  1  0.90306903  -0.22446798  0.54022130  1
  Li  Li75  1  0.59693097  1.22446798  0.04022130  1
  Li  Li76  1  0.97446798  -0.15306903  0.20977870  1
  Li  Li77  1  -0.47446798  0.15306903  0.70977870  1
  Li  Li78  1  0.59693097  -0.22446798  0.45977870  1
  Li  Li79  1  0.90306903  1.22446798  0.95977870  1
  Li  Li80  1  0.97446798  0.65306903  0.70977870  1
  Li  Li81  1  0.52553202  0.34693097  1.20977870  1
  Li  Li82  1  0.59693097  1.72446798  0.95977870  1
  Li  Li83  1  0.90306903  0.27553202  1.45977870  1
  Li  Li84  1  0.52553202  0.65306903  0.29022130  1
  Li  Li85  1  0.97446798  0.34693097  0.79022130  1
  Li  Li86  1  0.90306903  1.72446798  1.04022130  1
  Li  Li87  1  0.59693097  0.27553202  0.54022130  1
  Li  Li88  1  0.02553202  0.34693097  0.29022130  1
  Li  Li89  1  1.47446798  0.65306903  0.79022130  1
  Li  Li90  1  1.40306903  0.27553202  1.04022130  1
  Li  Li91  1  1.09693097  1.72446798  0.54022130  1
  Li  Li92  1  1.47446798  0.34693097  0.70977870  1
  Li  Li93  1  0.02553202  0.65306903  1.20977870  1
  Li  Li94  1  1.09693097  0.27553202  0.95977870  1
  Li  Li95  1  1.40306903  1.72446798  1.45977870  1
  Li  Li96  1  0.32152651  0.00000000  0.25000000  1
  Li  Li97  1  0.17847349  0.00000000  0.75000000  1
  Li  Li98  1  0.25000000  0.07152651  0.50000000  1
  Li  Li99  1  0.25000000  0.92847349  0.00000000  1
  Li  Li100  1  0.67847349  0.00000000  0.75000000  1
  Li  Li101  1  0.82152651  0.00000000  0.25000000  1
  Li  Li102  1  0.75000000  0.92847349  0.50000000  1
  Li  Li103  1  0.75000000  0.07152651  -0.00000000  1
  Li  Li104  1  0.82152651  0.50000000  0.75000000  1
  Li  Li105  1  0.67847349  0.50000000  0.25000000  1
  Li  Li106  1  0.75000000  0.57152651  -0.00000000  1
  Li  Li107  1  0.75000000  0.42847349  0.50000000  1
  Li  Li108  1  0.17847349  0.50000000  0.25000000  1
  Li  Li109  1  0.32152651  0.50000000  0.75000000  1
  Li  Li110  1  0.25000000  0.42847349  0.00000000  1
  Li  Li111  1  0.25000000  0.57152651  0.50000000  1
  Li  Li112  1  0.13772949  0.38772949  0.12500000  1
  Li  Li113  1  0.36227051  0.61227051  0.62500000  1
  Li  Li114  1  0.86227051  0.88772949  0.37500000  1
  Li  Li115  1  0.63772949  0.11227051  0.87500000  1
  Li  Li116  1  0.86227051  0.61227051  0.87500000  1
  Li  Li117  1  0.63772949  0.38772949  0.37500000  1
  Li  Li118  1  0.13772949  0.11227051  0.62500000  1
  Li  Li119  1  0.36227051  0.88772949  0.12500000  1
  Li  Li120  1  0.63772949  0.88772949  0.62500000  1
  Li  Li121  1  0.86227051  0.11227051  0.12500000  1
  Li  Li122  1  0.36227051  0.38772949  0.87500000  1
  Li  Li123  1  0.13772949  0.61227051  0.37500000  1
  Li  Li124  1  0.36227051  0.11227051  0.37500000  1
  Li  Li125  1  0.13772949  0.88772949  0.87500000  1
  Li  Li126  1  0.63772949  0.61227051  0.12500000  1
  Li  Li127  1  0.86227051  0.38772949  0.62500000  1
