# generated using pymatgen
data_Li2Y(PSe)2
_symmetry_space_group_name_H-M   'P 1'
_cell_length_a   5.52204157
_cell_length_b   5.64117883
_cell_length_c   7.40225712
_cell_angle_alpha   94.61962856
_cell_angle_beta   100.06059059
_cell_angle_gamma   108.55521187
_symmetry_Int_Tables_number   1
_chemical_formula_structural   Li2Y(PSe)2
_chemical_formula_sum   'Li2 Y1 P2 Se2'
_cell_volume   212.93746794
_cell_formula_units_Z   1
loop_
 _symmetry_equiv_pos_site_id
 _symmetry_equiv_pos_as_xyz
  1  'x, y, z'
loop_
 _atom_site_type_symbol
 _atom_site_label
 _atom_site_symmetry_multiplicity
 _atom_site_fract_x
 _atom_site_fract_y
 _atom_site_fract_z
 _atom_site_occupancy
  Se  Se0  1  0.00000000  0.00000000  0.00000000  1
  Se  Se1  1  0.50000000  0.50000000  0.50000000  1
  P  P2  1  0.25000000  0.25000000  0.25000000  1
  P  P3  1  0.75000000  0.25000000  0.00000000  1
  Li  Li4  1  0.25000000  0.75000000  0.50000000  1
  Li  Li5  1  0.94882243  0.73149379  0.95523594  1
  Y  Y6  1  0.74719438  0.13922676  0.39940609  1
