# generated using pymatgen
data_LiF
_symmetry_space_group_name_H-M   'P 1'
_cell_length_a   8.93658819
_cell_length_b   8.93658819
_cell_length_c   8.77172486
_cell_angle_alpha   90.00000000
_cell_angle_beta   90.00000000
_cell_angle_gamma   90.00000000
_symmetry_Int_Tables_number   1
_chemical_formula_structural   LiF
_chemical_formula_sum   'Li40 F40'
_cell_volume   700.53282731
_cell_formula_units_Z   40
loop_
 _symmetry_equiv_pos_site_id
 _symmetry_equiv_pos_as_xyz
  1  'x, y, z'
loop_
 _atom_site_type_symbol
 _atom_site_label
 _atom_site_symmetry_multiplicity
 _atom_site_fract_x
 _atom_site_fract_y
 _atom_site_fract_z
 _atom_site_occupancy
  F  F0  1  0.46576910  0.13202852  0.01018408  1
  F  F1  1  0.03423090  0.86797148  0.51018408  1
  F  F2  1  0.11797148  0.21576910  0.26018408  1
  F  F3  1  0.38202852  0.78423090  0.76018408  1
  F  F4  1  0.03423090  0.13202852  0.98981592  1
  F  F5  1  0.46576910  0.86797148  0.48981592  1
  F  F6  1  0.38202852  0.21576910  0.73981592  1
  F  F7  1  0.11797148  0.78423090  0.23981592  1
  F  F8  1  0.53423090  0.86797148  0.98981592  1
  F  F9  1  0.96576910  0.13202852  0.48981592  1
  F  F10  1  0.88202852  0.78423090  0.73981592  1
  F  F11  1  0.61797148  0.21576910  0.23981592  1
  F  F12  1  0.96576910  0.86797148  0.01018408  1
  F  F13  1  0.53423090  0.13202852  0.51018408  1
  F  F14  1  0.61797148  0.78423090  0.26018408  1
  F  F15  1  0.88202852  0.21576910  0.76018408  1
  F  F16  1  0.96576910  0.63202852  0.51018408  1
  F  F17  1  0.53423090  0.36797148  0.01018408  1
  F  F18  1  0.61797148  0.71576910  0.76018408  1
  F  F19  1  0.88202852  0.28423090  0.26018408  1
  F  F20  1  0.53423090  0.63202852  0.48981592  1
  F  F21  1  0.96576910  0.36797148  0.98981592  1
  F  F22  1  0.88202852  0.71576910  0.23981592  1
  F  F23  1  0.61797148  0.28423090  0.73981592  1
  F  F24  1  0.03423090  0.36797148  0.48981592  1
  F  F25  1  0.46576910  0.63202852  0.98981592  1
  F  F26  1  0.38202852  0.28423090  0.23981592  1
  F  F27  1  0.11797148  0.71576910  0.73981592  1
  F  F28  1  0.46576910  0.36797148  0.51018408  1
  F  F29  1  0.03423090  0.63202852  0.01018408  1
  F  F30  1  0.11797148  0.28423090  0.76018408  1
  F  F31  1  0.38202852  0.71576910  0.26018408  1
  F  F32  1  0.00000000  0.25000000  0.37500000  1
  F  F33  1  0.00000000  0.75000000  0.62500000  1
  F  F34  1  0.50000000  0.25000000  0.62500000  1
  F  F35  1  0.50000000  0.75000000  0.37500000  1
  F  F36  1  0.50000000  0.75000000  0.87500000  1
  F  F37  1  0.50000000  0.25000000  0.12500000  1
  F  F38  1  0.00000000  0.75000000  0.12500000  1
  F  F39  1  0.00000000  0.25000000  0.87500000  1
  Li  Li40  1  0.51228197  0.42515925  0.74840596  1
  Li  Li41  1  -0.01228197  -0.42515925  1.24840596  1
  Li  Li42  1  -0.17515925  1.26228197  0.99840596  1
  Li  Li43  1  0.67515925  -0.26228197  1.49840596  1
  Li  Li44  1  -0.01228197  0.42515925  -0.74840596  1
  Li  Li45  1  0.51228197  -0.42515925  -0.24840596  1
  Li  Li46  1  0.67515925  1.26228197  0.00159404  1
  Li  Li47  1  -0.17515925  -0.26228197  -0.49840596  1
  Li  Li48  1  -0.51228197  -0.42515925  -0.74840596  1
  Li  Li49  1  1.01228197  0.42515925  -0.24840596  1
  Li  Li50  1  1.17515925  -0.26228197  0.00159404  1
  Li  Li51  1  0.32484075  1.26228197  -0.49840596  1
  Li  Li52  1  1.01228197  -0.42515925  0.74840596  1
  Li  Li53  1  -0.51228197  0.42515925  1.24840596  1
  Li  Li54  1  0.32484075  -0.26228197  0.99840596  1
  Li  Li55  1  1.17515925  1.26228197  1.49840596  1
  Li  Li56  1  1.01228197  0.92515925  1.24840596  1
  Li  Li57  1  0.48771803  0.07484075  1.74840596  1
  Li  Li58  1  0.32484075  1.76228197  1.49840596  1
  Li  Li59  1  1.17515925  0.23771803  1.99840596  1
  Li  Li60  1  0.48771803  0.92515925  -0.24840596  1
  Li  Li61  1  1.01228197  0.07484075  0.25159404  1
  Li  Li62  1  1.17515925  1.76228197  0.50159404  1
  Li  Li63  1  0.32484075  0.23771803  0.00159404  1
  Li  Li64  1  -0.01228197  0.07484075  -0.24840596  1
  Li  Li65  1  1.51228197  0.92515925  0.25159404  1
  Li  Li66  1  1.67515925  0.23771803  0.50159404  1
  Li  Li67  1  0.82484075  1.76228197  0.00159404  1
  Li  Li68  1  1.51228197  0.07484075  1.24840596  1
  Li  Li69  1  -0.01228197  0.92515925  1.74840596  1
  Li  Li70  1  0.82484075  0.23771803  1.49840596  1
  Li  Li71  1  1.67515925  1.76228197  1.99840596  1
  Li  Li72  1  0.00000000  0.25000000  0.12500000  1
  Li  Li73  1  0.00000000  0.75000000  0.37500000  1
  Li  Li74  1  0.00000000  0.75000000  0.87500000  1
  Li  Li75  1  0.00000000  0.25000000  0.62500000  1
  Li  Li76  1  0.50000000  0.75000000  0.62500000  1
  Li  Li77  1  0.50000000  0.25000000  0.87500000  1
  Li  Li78  1  0.50000000  0.25000000  0.37500000  1
  Li  Li79  1  0.50000000  0.75000000  0.12500000  1
