# generated using pymatgen
data_Li2YAs2P3Se2
_symmetry_space_group_name_H-M   'P 1'
_cell_length_a   5.50761830
_cell_length_b   5.67927389
_cell_length_c   7.30590835
_cell_angle_alpha   94.36750760
_cell_angle_beta   99.21026526
_cell_angle_gamma   106.07852449
_symmetry_Int_Tables_number   1
_chemical_formula_structural   Li2YAs2P3Se2
_chemical_formula_sum   'Li2 Y1 As2 P3 Se2'
_cell_volume   214.99758309
_cell_formula_units_Z   1
loop_
 _symmetry_equiv_pos_site_id
 _symmetry_equiv_pos_as_xyz
  1  'x, y, z'
loop_
 _atom_site_type_symbol
 _atom_site_label
 _atom_site_symmetry_multiplicity
 _atom_site_fract_x
 _atom_site_fract_y
 _atom_site_fract_z
 _atom_site_occupancy
  Se  Se0  1  0.00000000  0.00000000  0.00000000  1
  Se  Se1  1  0.50000000  0.50000000  0.50000000  1
  Y  Y2  1  0.50000000  0.50000000  0.00000000  1
  P  P3  1  0.50000000  0.00000000  0.50000000  1
  P  P4  1  0.00000000  0.50000000  0.50000000  1
  P  P5  1  0.79264106  0.38466609  0.93096973  1
  As  As6  1  0.66505786  0.30493581  0.42309324  1
  As  As7  1  0.60447424  0.21163804  0.45833731  1
  Li  Li8  1  0.37791010  0.77802349  0.02403168  1
  Li  Li9  1  0.88706675  0.83651451  0.77049288  1
