# generated using pymatgen
data_LiF
_symmetry_space_group_name_H-M   'P 1'
_cell_length_a   9.58806935
_cell_length_b   6.59012582
_cell_length_c   9.61003927
_cell_angle_alpha   90.00000000
_cell_angle_beta   90.00000000
_cell_angle_gamma   90.00000000
_symmetry_Int_Tables_number   1
_chemical_formula_structural   LiF
_chemical_formula_sum   'Li24 F24'
_cell_volume   607.22554738
_cell_formula_units_Z   24
loop_
 _symmetry_equiv_pos_site_id
 _symmetry_equiv_pos_as_xyz
  1  'x, y, z'
loop_
 _atom_site_type_symbol
 _atom_site_label
 _atom_site_symmetry_multiplicity
 _atom_site_fract_x
 _atom_site_fract_y
 _atom_site_fract_z
 _atom_site_occupancy
  F  F0  1  0.75479588  0.81257783  0.02465156  1
  F  F1  1  -0.25479588  -0.81257783  0.52465156  1
  F  F2  1  -0.75479588  1.31257783  -0.02465156  1
  F  F3  1  1.25479588  -0.31257783  0.47534844  1
  F  F4  1  -0.75479588  -0.81257783  -0.02465156  1
  F  F5  1  1.25479588  0.81257783  0.47534844  1
  F  F6  1  0.75479588  -0.31257783  0.02465156  1
  F  F7  1  -0.25479588  1.31257783  0.52465156  1
  F  F8  1  0.94728609  0.17833074  0.56003068  1
  F  F9  1  0.55271391  0.82166926  0.06003068  1
  F  F10  1  0.05271391  0.67833074  0.43996932  1
  F  F11  1  0.44728609  0.32166926  0.93996932  1
  F  F12  1  0.05271391  0.82166926  0.43996932  1
  F  F13  1  0.44728609  0.17833074  0.93996932  1
  F  F14  1  0.94728609  0.32166926  0.56003068  1
  F  F15  1  0.55271391  0.67833074  0.06003068  1
  F  F16  1  0.15837306  0.09976618  0.01961323  1
  F  F17  1  0.34162694  0.90023382  0.51961323  1
  F  F18  1  0.84162694  0.59976618  0.98038677  1
  F  F19  1  0.65837306  0.40023382  0.48038677  1
  F  F20  1  0.84162694  0.90023382  0.98038677  1
  F  F21  1  0.65837306  0.09976618  0.48038677  1
  F  F22  1  0.15837306  0.40023382  0.01961323  1
  F  F23  1  0.34162694  0.59976618  0.51961323  1
  Li  Li24  1  0.56924031  0.25000000  0.10325200  1
  Li  Li25  1  0.93075969  0.75000000  0.60325200  1
  Li  Li26  1  0.43075969  0.75000000  0.89674800  1
  Li  Li27  1  0.06924031  0.25000000  0.39674800  1
  Li  Li28  1  0.00000000  0.00000000  0.00000000  1
  Li  Li29  1  0.50000000  0.00000000  0.50000000  1
  Li  Li30  1  0.00000000  0.50000000  0.00000000  1
  Li  Li31  1  0.50000000  0.50000000  0.50000000  1
  Li  Li32  1  0.00000000  0.00000000  0.50000000  1
  Li  Li33  1  0.50000000  0.00000000  0.00000000  1
  Li  Li34  1  0.00000000  0.50000000  0.50000000  1
  Li  Li35  1  0.50000000  0.50000000  0.00000000  1
  Li  Li36  1  0.77331435  0.25000000  0.72222459  1
  Li  Li37  1  0.72668565  0.75000000  0.22222459  1
  Li  Li38  1  0.22668565  0.75000000  0.27777541  1
  Li  Li39  1  0.27331435  0.25000000  0.77777541  1
  Li  Li40  1  0.35632586  0.25000000  0.95052804  1
  Li  Li41  1  0.14367414  0.75000000  0.45052804  1
  Li  Li42  1  0.64367414  0.75000000  0.04947196  1
  Li  Li43  1  0.85632586  0.25000000  0.54947196  1
  Li  Li44  1  0.58926348  0.25000000  0.78966089  1
  Li  Li45  1  0.91073652  0.75000000  0.28966089  1
  Li  Li46  1  0.41073652  0.75000000  0.21033911  1
  Li  Li47  1  0.08926348  0.25000000  0.71033911  1
