# generated using pymatgen
data_Li2Y2MoP3Se2
_symmetry_space_group_name_H-M   'P 1'
_cell_length_a   5.44491960
_cell_length_b   5.60586071
_cell_length_c   7.16676872
_cell_angle_alpha   93.94231643
_cell_angle_beta   98.58554559
_cell_angle_gamma   105.83471825
_symmetry_Int_Tables_number   1
_chemical_formula_structural   Li2Y2MoP3Se2
_chemical_formula_sum   'Li2 Y2 Mo1 P3 Se2'
_cell_volume   206.71223995
_cell_formula_units_Z   1
loop_
 _symmetry_equiv_pos_site_id
 _symmetry_equiv_pos_as_xyz
  1  'x, y, z'
loop_
 _atom_site_type_symbol
 _atom_site_label
 _atom_site_symmetry_multiplicity
 _atom_site_fract_x
 _atom_site_fract_y
 _atom_site_fract_z
 _atom_site_occupancy
  Se  Se0  1  0.00000000  0.00000000  0.00000000  1
  Se  Se1  1  0.50000000  0.50000000  0.50000000  1
  P  P2  1  0.50000000  0.50000000  0.00000000  1
  P  P3  1  0.50000000  0.00000000  0.50000000  1
  P  P4  1  0.00000000  0.50000000  0.50000000  1
  Mo  Mo5  1  0.45758566  0.11484668  0.77453813  1
  Li  Li6  1  0.30110314  0.81362739  0.95980544  1
  Li  Li7  1  0.18205975  0.77591299  0.25189021  1
  Y  Y8  1  0.35121751  0.77255663  0.60880313  1
  Y  Y9  1  0.25781399  0.60799427  0.47418994  1
