# generated using pymatgen
data_LiY2P3Se
_symmetry_space_group_name_H-M   'P 1'
_cell_length_a   5.46838204
_cell_length_b   5.56440162
_cell_length_c   7.26280323
_cell_angle_alpha   93.66844821
_cell_angle_beta   98.18675493
_cell_angle_gamma   104.97333430
_symmetry_Int_Tables_number   1
_chemical_formula_structural   LiY2P3Se
_chemical_formula_sum   'Li1 Y2 P3 Se1'
_cell_volume   210.13847188
_cell_formula_units_Z   1
loop_
 _symmetry_equiv_pos_site_id
 _symmetry_equiv_pos_as_xyz
  1  'x, y, z'
loop_
 _atom_site_type_symbol
 _atom_site_label
 _atom_site_symmetry_multiplicity
 _atom_site_fract_x
 _atom_site_fract_y
 _atom_site_fract_z
 _atom_site_occupancy
  Se  Se0  1  0.12500000  0.12500000  0.12500000  1
  P  P1  1  0.50000000  0.50000000  0.50000000  1
  P  P2  1  0.25000000  0.25000000  0.25000000  1
  P  P3  1  0.75000000  0.75000000  0.75000000  1
  Li  Li4  1  0.13763616  0.36361632  0.79069043  1
  Y  Y5  1  0.16203041  0.75152506  0.88389011  1
  Y  Y6  1  0.21634827  0.67921315  0.52495305  1
