# generated using pymatgen
data_Li2YTe4P2Se
_symmetry_space_group_name_H-M   'P 1'
_cell_length_a   4.92164270
_cell_length_b   5.08508366
_cell_length_c   6.99166871
_cell_angle_alpha   95.23820890
_cell_angle_beta   100.66825031
_cell_angle_gamma   109.88010342
_symmetry_Int_Tables_number   1
_chemical_formula_structural   Li2YTe4P2Se
_chemical_formula_sum   'Li2 Y1 Te4 P2 Se1'
_cell_volume   159.43996098
_cell_formula_units_Z   1
loop_
 _symmetry_equiv_pos_site_id
 _symmetry_equiv_pos_as_xyz
  1  'x, y, z'
loop_
 _atom_site_type_symbol
 _atom_site_label
 _atom_site_symmetry_multiplicity
 _atom_site_fract_x
 _atom_site_fract_y
 _atom_site_fract_z
 _atom_site_occupancy
  Y  Y0  1  0.00000000  0.00000000  0.00000000  1
  P  P1  1  0.50000000  0.50000000  0.50000000  1
  P  P2  1  0.25000000  0.25000000  0.25000000  1
  Se  Se3  1  0.75000000  0.25000000  0.00000000  1
  Te  Te4  1  0.25000000  0.75000000  0.50000000  1
  Te  Te5  1  0.19190886  0.96980345  0.24379237  1
  Te  Te6  1  0.43185797  0.52059480  0.63208447  1
  Te  Te7  1  0.41448078  0.46305070  0.98637469  1
  Li  Li8  1  0.36799076  0.57327686  0.87605776  1
  Li  Li9  1  0.37236475  0.24826250  0.69648782  1
