# generated using pymatgen
data_LiF
_symmetry_space_group_name_H-M   'P 1'
_cell_length_a   6.54226027
_cell_length_b   8.36716046
_cell_length_c   11.71162342
_cell_angle_alpha   90.00000000
_cell_angle_beta   90.00000000
_cell_angle_gamma   90.00000000
_symmetry_Int_Tables_number   1
_chemical_formula_structural   LiF
_chemical_formula_sum   'Li24 F24'
_cell_volume   641.09592252
_cell_formula_units_Z   24
loop_
 _symmetry_equiv_pos_site_id
 _symmetry_equiv_pos_as_xyz
  1  'x, y, z'
loop_
 _atom_site_type_symbol
 _atom_site_label
 _atom_site_symmetry_multiplicity
 _atom_site_fract_x
 _atom_site_fract_y
 _atom_site_fract_z
 _atom_site_occupancy
  F  F0  1  0.56278385  0.81295210  0.35930148  1
  F  F1  1  0.43721615  0.18704790  0.35930148  1
  F  F2  1  0.93721615  0.31295210  0.14069852  1
  F  F3  1  0.06278385  0.68704790  0.14069852  1
  F  F4  1  0.43721615  0.18704790  0.64069852  1
  F  F5  1  0.56278385  0.81295210  0.64069852  1
  F  F6  1  0.06278385  0.68704790  0.85930148  1
  F  F7  1  0.93721615  0.31295210  0.85930148  1
  F  F8  1  0.00000000  0.00000000  0.78507393  1
  F  F9  1  0.50000000  0.50000000  0.71492607  1
  F  F10  1  0.00000000  0.00000000  0.21492607  1
  F  F11  1  0.50000000  0.50000000  0.28507393  1
  F  F12  1  0.15200343  0.21729543  0.96776541  1
  F  F13  1  0.84799657  0.78270457  0.96776541  1
  F  F14  1  0.34799657  0.71729543  0.53223459  1
  F  F15  1  0.65200343  0.28270457  0.53223459  1
  F  F16  1  0.84799657  0.78270457  0.03223459  1
  F  F17  1  0.15200343  0.21729543  0.03223459  1
  F  F18  1  0.65200343  0.28270457  0.46776541  1
  F  F19  1  0.34799657  0.71729543  0.46776541  1
  F  F20  1  0.22967400  0.98526922  -0.00000000  1
  F  F21  1  0.77032600  0.01473078  0.00000000  1
  F  F22  1  0.27032600  0.48526922  0.50000000  1
  F  F23  1  0.72967400  0.51473078  0.50000000  1
  Li  Li24  1  0.00000000  0.50000000  0.59805151  1
  Li  Li25  1  0.50000000  0.00000000  0.90194849  1
  Li  Li26  1  0.00000000  0.50000000  0.40194849  1
  Li  Li27  1  0.50000000  0.00000000  0.09805151  1
  Li  Li28  1  0.30489162  0.32001800  0.82227812  1
  Li  Li29  1  -0.30489162  -0.32001800  0.82227812  1
  Li  Li30  1  0.19510838  0.82001800  -0.32227812  1
  Li  Li31  1  0.80489162  0.17998200  -0.32227812  1
  Li  Li32  1  -0.30489162  -0.32001800  -0.82227812  1
  Li  Li33  1  0.30489162  0.32001800  -0.82227812  1
  Li  Li34  1  0.80489162  0.17998200  1.32227812  1
  Li  Li35  1  0.19510838  0.82001800  1.32227812  1
  Li  Li36  1  0.69206361  0.58389482  0.00000000  1
  Li  Li37  1  0.30793639  0.41610518  0.00000000  1
  Li  Li38  1  0.80793639  0.08389482  0.50000000  1
  Li  Li39  1  0.19206361  0.91610518  0.50000000  1
  Li  Li40  1  0.87516494  0.77577496  0.67637533  1
  Li  Li41  1  0.12483506  0.22422504  0.67637533  1
  Li  Li42  1  0.62483506  0.27577496  0.82362467  1
  Li  Li43  1  0.37516494  0.72422504  0.82362467  1
  Li  Li44  1  0.12483506  0.22422504  0.32362467  1
  Li  Li45  1  0.87516494  0.77577496  0.32362467  1
  Li  Li46  1  0.37516494  0.72422504  0.17637533  1
  Li  Li47  1  0.62483506  0.27577496  0.17637533  1
