# generated using pymatgen
data_Li2Sb2AsP2
_symmetry_space_group_name_H-M   'P 1'
_cell_length_a   4.38622067
_cell_length_b   4.53340815
_cell_length_c   6.81265570
_cell_angle_alpha   95.80021952
_cell_angle_beta   102.31962769
_cell_angle_gamma   111.78074099
_symmetry_Int_Tables_number   1
_chemical_formula_structural   Li2Sb2AsP2
_chemical_formula_sum   'Li2 Sb2 As1 P2'
_cell_volume   120.44924476
_cell_formula_units_Z   1
loop_
 _symmetry_equiv_pos_site_id
 _symmetry_equiv_pos_as_xyz
  1  'x, y, z'
loop_
 _atom_site_type_symbol
 _atom_site_label
 _atom_site_symmetry_multiplicity
 _atom_site_fract_x
 _atom_site_fract_y
 _atom_site_fract_z
 _atom_site_occupancy
  P  P0  1  0.00000000  0.00000000  0.00000000  1
  P  P1  1  0.50000000  0.50000000  0.50000000  1
  As  As2  1  0.50000000  0.50000000  0.00000000  1
  Li  Li3  1  0.50000000  0.00000000  0.50000000  1
  Li  Li4  1  0.00000000  0.50000000  0.50000000  1
  Sb  Sb5  1  0.55875696  0.43175153  0.09626277  1
  Sb  Sb6  1  0.21323815  0.24489895  0.28653482  1
