# generated using pymatgen
data_LiF
_symmetry_space_group_name_H-M   'P 1'
_cell_length_a   8.91779112
_cell_length_b   8.91779112
_cell_length_c   2.88919141
_cell_angle_alpha   90.00000000
_cell_angle_beta   90.00000000
_cell_angle_gamma   90.00000000
_symmetry_Int_Tables_number   1
_chemical_formula_structural   LiF
_chemical_formula_sum   'Li9 F9'
_cell_volume   229.76872059
_cell_formula_units_Z   9
loop_
 _symmetry_equiv_pos_site_id
 _symmetry_equiv_pos_as_xyz
  1  'x, y, z'
loop_
 _atom_site_type_symbol
 _atom_site_label
 _atom_site_symmetry_multiplicity
 _atom_site_fract_x
 _atom_site_fract_y
 _atom_site_fract_z
 _atom_site_occupancy
  F  F0  1  0.00000000  0.00000000  0.50000000  1
  F  F1  1  0.00000000  0.00000000  0.82747031  1
  F  F2  1  0.00000000  0.00000000  0.17252969  1
  F  F3  1  0.13813139  0.50000000  0.50000000  1
  F  F4  1  0.86186861  0.50000000  0.50000000  1
  F  F5  1  0.50000000  0.13813139  0.50000000  1
  F  F6  1  0.50000000  0.86186861  0.50000000  1
  F  F7  1  0.00000000  0.50000000  0.50000000  1
  F  F8  1  0.50000000  0.00000000  0.50000000  1
  Li  Li9  1  0.17971715  0.00000000  0.50000000  1
  Li  Li10  1  -0.17971715  0.00000000  0.50000000  1
  Li  Li11  1  0.00000000  0.17971715  0.50000000  1
  Li  Li12  1  0.00000000  -0.17971715  0.50000000  1
  Li  Li13  1  0.11486285  0.11486285  0.00000000  1
  Li  Li14  1  0.88513715  0.88513715  0.00000000  1
  Li  Li15  1  0.88513715  0.11486285  0.00000000  1
  Li  Li16  1  0.11486285  0.88513715  0.00000000  1
  Li  Li17  1  0.50000000  0.50000000  0.50000000  1
