# generated using pymatgen
data_Li4TeF2
_symmetry_space_group_name_H-M   'P 1'
_cell_length_a   10.06745216
_cell_length_b   10.06745216
_cell_length_c   21.73450404
_cell_angle_alpha   90.00000000
_cell_angle_beta   90.00000000
_cell_angle_gamma   90.00000000
_symmetry_Int_Tables_number   1
_chemical_formula_structural   Li4TeF2
_chemical_formula_sum   'Li96 Te24 F48'
_cell_volume   2202.87007698
_cell_formula_units_Z   24
loop_
 _symmetry_equiv_pos_site_id
 _symmetry_equiv_pos_as_xyz
  1  'x, y, z'
loop_
 _atom_site_type_symbol
 _atom_site_label
 _atom_site_symmetry_multiplicity
 _atom_site_fract_x
 _atom_site_fract_y
 _atom_site_fract_z
 _atom_site_occupancy
  F  F0  1  0.19014260  0.31114524  0.43069500  1
  F  F1  1  0.30985740  -0.31114524  0.93069500  1
  F  F2  1  -0.06114524  0.94014260  0.68069500  1
  F  F3  1  0.56114524  0.05985740  1.18069500  1
  F  F4  1  0.30985740  0.31114524  -0.43069500  1
  F  F5  1  0.19014260  -0.31114524  0.06930500  1
  F  F6  1  0.56114524  0.94014260  0.31930500  1
  F  F7  1  -0.06114524  0.05985740  -0.18069500  1
  F  F8  1  -0.19014260  -0.31114524  -0.43069500  1
  F  F9  1  0.69014260  0.31114524  0.06930500  1
  F  F10  1  1.06114524  0.05985740  0.31930500  1
  F  F11  1  0.43885476  0.94014260  -0.18069500  1
  F  F12  1  0.69014260  -0.31114524  0.43069500  1
  F  F13  1  -0.19014260  0.31114524  0.93069500  1
  F  F14  1  0.43885476  0.05985740  0.68069500  1
  F  F15  1  1.06114524  0.94014260  1.18069500  1
  F  F16  1  0.69014260  0.81114524  0.93069500  1
  F  F17  1  0.80985740  0.18885476  1.43069500  1
  F  F18  1  0.43885476  1.44014260  1.18069500  1
  F  F19  1  1.06114524  0.55985740  1.68069500  1
  F  F20  1  0.80985740  0.81114524  0.06930500  1
  F  F21  1  0.69014260  0.18885476  0.56930500  1
  F  F22  1  1.06114524  1.44014260  0.81930500  1
  F  F23  1  0.43885476  0.55985740  0.31930500  1
  F  F24  1  0.30985740  0.18885476  0.06930500  1
  F  F25  1  1.19014260  0.81114524  0.56930500  1
  F  F26  1  1.56114524  0.55985740  0.81930500  1
  F  F27  1  0.93885476  1.44014260  0.31930500  1
  F  F28  1  1.19014260  0.18885476  0.93069500  1
  F  F29  1  0.30985740  0.81114524  1.43069500  1
  F  F30  1  0.93885476  0.55985740  1.18069500  1
  F  F31  1  1.56114524  1.44014260  1.68069500  1
  F  F32  1  0.00000000  0.25000000  0.08384180  1
  F  F33  1  0.00000000  0.75000000  0.33384180  1
  F  F34  1  0.50000000  0.25000000  0.91615820  1
  F  F35  1  0.50000000  0.75000000  0.66615820  1
  F  F36  1  0.00000000  0.75000000  0.91615820  1
  F  F37  1  0.00000000  0.25000000  0.66615820  1
  F  F38  1  0.50000000  0.75000000  0.08384180  1
  F  F39  1  0.50000000  0.25000000  0.33384180  1
  F  F40  1  0.50000000  0.75000000  0.58384180  1
  F  F41  1  0.50000000  0.25000000  0.83384180  1
  F  F42  1  0.00000000  0.75000000  0.41615820  1
  F  F43  1  0.00000000  0.25000000  0.16615820  1
  F  F44  1  0.50000000  0.25000000  0.41615820  1
  F  F45  1  0.50000000  0.75000000  0.16615820  1
  F  F46  1  0.00000000  0.25000000  0.58384180  1
  F  F47  1  0.00000000  0.75000000  0.83384180  1
  Li  Li48  1  0.83189190  0.08092642  0.32425441  1
  Li  Li49  1  0.66810810  0.91907358  0.82425441  1
  Li  Li50  1  0.16907358  0.58189190  0.57425441  1
  Li  Li51  1  0.33092642  0.41810810  0.07425441  1
  Li  Li52  1  0.66810810  0.08092642  0.67574559  1
  Li  Li53  1  0.83189190  0.91907358  0.17574559  1
  Li  Li54  1  0.33092642  0.58189190  0.42574559  1
  Li  Li55  1  0.16907358  0.41810810  0.92574559  1
  Li  Li56  1  0.16810810  0.91907358  0.67574559  1
  Li  Li57  1  0.33189190  0.08092642  0.17574559  1
  Li  Li58  1  0.83092642  0.41810810  0.42574559  1
  Li  Li59  1  0.66907358  0.58189190  0.92574559  1
  Li  Li60  1  0.33189190  0.91907358  0.32425441  1
  Li  Li61  1  0.16810810  0.08092642  0.82425441  1
  Li  Li62  1  0.66907358  0.41810810  0.57425441  1
  Li  Li63  1  0.83092642  0.58189190  0.07425441  1
  Li  Li64  1  0.33189190  0.58092642  0.82425441  1
  Li  Li65  1  0.16810810  0.41907358  0.32425441  1
  Li  Li66  1  0.66907358  0.08189190  0.07425441  1
  Li  Li67  1  0.83092642  0.91810810  0.57425441  1
  Li  Li68  1  0.16810810  0.58092642  0.17574559  1
  Li  Li69  1  0.33189190  0.41907358  0.67574559  1
  Li  Li70  1  0.83092642  0.08189190  0.92574559  1
  Li  Li71  1  0.66907358  0.91810810  0.42574559  1
  Li  Li72  1  0.66810810  0.41907358  0.17574559  1
  Li  Li73  1  0.83189190  0.58092642  0.67574559  1
  Li  Li74  1  0.33092642  0.91810810  0.92574559  1
  Li  Li75  1  0.16907358  0.08189190  0.42574559  1
  Li  Li76  1  0.83189190  0.41907358  0.82425441  1
  Li  Li77  1  0.66810810  0.58092642  0.32425441  1
  Li  Li78  1  0.16907358  0.91810810  0.07425441  1
  Li  Li79  1  0.33092642  0.08189190  0.57425441  1
  Li  Li80  1  0.44907592  0.33065247  0.94386766  1
  Li  Li81  1  0.05092408  0.66934753  0.44386766  1
  Li  Li82  1  0.91934753  0.19907592  0.19386766  1
  Li  Li83  1  0.58065247  0.80092408  0.69386766  1
  Li  Li84  1  0.05092408  0.33065247  0.05613234  1
  Li  Li85  1  0.44907592  0.66934753  0.55613234  1
  Li  Li86  1  0.58065247  0.19907592  0.80613234  1
  Li  Li87  1  0.91934753  0.80092408  0.30613234  1
  Li  Li88  1  0.55092408  0.66934753  0.05613234  1
  Li  Li89  1  0.94907592  0.33065247  0.55613234  1
  Li  Li90  1  0.08065247  0.80092408  0.80613234  1
  Li  Li91  1  0.41934753  0.19907592  0.30613234  1
  Li  Li92  1  0.94907592  0.66934753  0.94386766  1
  Li  Li93  1  0.55092408  0.33065247  0.44386766  1
  Li  Li94  1  0.41934753  0.80092408  0.19386766  1
  Li  Li95  1  0.08065247  0.19907592  0.69386766  1
  Li  Li96  1  0.94907592  0.83065247  0.44386766  1
  Li  Li97  1  0.55092408  0.16934753  0.94386766  1
  Li  Li98  1  0.41934753  0.69907592  0.69386766  1
  Li  Li99  1  0.08065247  0.30092408  0.19386766  1
  Li  Li100  1  0.55092408  0.83065247  0.55613234  1
  Li  Li101  1  0.94907592  0.16934753  0.05613234  1
  Li  Li102  1  0.08065247  0.69907592  0.30613234  1
  Li  Li103  1  0.41934753  0.30092408  0.80613234  1
  Li  Li104  1  0.05092408  0.16934753  0.55613234  1
  Li  Li105  1  0.44907592  0.83065247  0.05613234  1
  Li  Li106  1  0.58065247  0.30092408  0.30613234  1
  Li  Li107  1  0.91934753  0.69907592  0.80613234  1
  Li  Li108  1  0.44907592  0.16934753  0.44386766  1
  Li  Li109  1  0.05092408  0.83065247  0.94386766  1
  Li  Li110  1  0.91934753  0.30092408  0.69386766  1
  Li  Li111  1  0.58065247  0.69907592  0.19386766  1
  Li  Li112  1  0.27654852  0.52654852  0.12500000  1
  Li  Li113  1  0.22345148  0.47345148  0.62500000  1
  Li  Li114  1  0.72345148  0.02654852  0.37500000  1
  Li  Li115  1  0.77654852  0.97345148  0.87500000  1
  Li  Li116  1  0.72345148  0.47345148  0.87500000  1
  Li  Li117  1  0.77654852  0.52654852  0.37500000  1
  Li  Li118  1  0.27654852  0.97345148  0.62500000  1
  Li  Li119  1  0.22345148  0.02654852  0.12500000  1
  Li  Li120  1  0.77654852  0.02654852  0.62500000  1
  Li  Li121  1  0.72345148  0.97345148  0.12500000  1
  Li  Li122  1  0.22345148  0.52654852  0.87500000  1
  Li  Li123  1  0.27654852  0.47345148  0.37500000  1
  Li  Li124  1  0.22345148  0.97345148  0.37500000  1
  Li  Li125  1  0.27654852  0.02654852  0.87500000  1
  Li  Li126  1  0.77654852  0.47345148  0.12500000  1
  Li  Li127  1  0.72345148  0.52654852  0.62500000  1
  Li  Li128  1  0.75326793  0.00000000  0.25000000  1
  Li  Li129  1  0.74673207  -0.00000000  0.75000000  1
  Li  Li130  1  0.25000000  0.50326793  0.50000000  1
  Li  Li131  1  0.25000000  0.49673207  -0.00000000  1
  Li  Li132  1  0.24673207  0.00000000  0.75000000  1
  Li  Li133  1  0.25326793  0.00000000  0.25000000  1
  Li  Li134  1  0.75000000  0.49673207  0.50000000  1
  Li  Li135  1  0.75000000  0.50326793  0.00000000  1
  Li  Li136  1  0.25326793  0.50000000  0.75000000  1
  Li  Li137  1  0.24673207  0.50000000  0.25000000  1
  Li  Li138  1  0.75000000  0.00326793  -0.00000000  1
  Li  Li139  1  0.75000000  0.99673207  0.50000000  1
  Li  Li140  1  0.74673207  0.50000000  0.25000000  1
  Li  Li141  1  0.75326793  0.50000000  0.75000000  1
  Li  Li142  1  0.25000000  0.99673207  -0.00000000  1
  Li  Li143  1  0.25000000  0.00326793  0.50000000  1
  Te  Te144  1  0.00000000  0.00000000  0.00000000  1
  Te  Te145  1  0.50000000  0.00000000  0.50000000  1
  Te  Te146  1  0.25000000  0.75000000  0.25000000  1
  Te  Te147  1  0.25000000  0.25000000  0.75000000  1
  Te  Te148  1  0.50000000  0.00000000  0.00000000  1
  Te  Te149  1  0.00000000  0.00000000  0.50000000  1
  Te  Te150  1  0.25000000  0.75000000  0.75000000  1
  Te  Te151  1  0.25000000  0.25000000  0.25000000  1
  Te  Te152  1  0.50000000  0.50000000  0.50000000  1
  Te  Te153  1  0.00000000  0.50000000  0.00000000  1
  Te  Te154  1  0.75000000  0.25000000  0.75000000  1
  Te  Te155  1  0.75000000  0.75000000  0.25000000  1
  Te  Te156  1  0.00000000  0.50000000  0.50000000  1
  Te  Te157  1  0.50000000  0.50000000  0.00000000  1
  Te  Te158  1  0.75000000  0.25000000  0.25000000  1
  Te  Te159  1  0.75000000  0.75000000  0.75000000  1
  Te  Te160  1  0.00000000  0.25000000  0.37500000  1
  Te  Te161  1  0.00000000  0.75000000  0.62500000  1
  Te  Te162  1  0.50000000  0.25000000  0.62500000  1
  Te  Te163  1  0.50000000  0.75000000  0.37500000  1
  Te  Te164  1  0.50000000  0.75000000  0.87500000  1
  Te  Te165  1  0.50000000  0.25000000  0.12500000  1
  Te  Te166  1  0.00000000  0.75000000  0.12500000  1
  Te  Te167  1  0.00000000  0.25000000  0.87500000  1
