# generated using pymatgen
data_Li2Sb2Te4MoP2
_symmetry_space_group_name_H-M   'P 1'
_cell_length_a   5.20471409
_cell_length_b   5.43026068
_cell_length_c   7.01901544
_cell_angle_alpha   93.93531064
_cell_angle_beta   98.86660375
_cell_angle_gamma   106.16436258
_symmetry_Int_Tables_number   1
_chemical_formula_structural   Li2Sb2Te4MoP2
_chemical_formula_sum   'Li2 Sb2 Te4 Mo1 P2'
_cell_volume   186.95382376
_cell_formula_units_Z   1
loop_
 _symmetry_equiv_pos_site_id
 _symmetry_equiv_pos_as_xyz
  1  'x, y, z'
loop_
 _atom_site_type_symbol
 _atom_site_label
 _atom_site_symmetry_multiplicity
 _atom_site_fract_x
 _atom_site_fract_y
 _atom_site_fract_z
 _atom_site_occupancy
  P  P0  1  0.00000000  0.00000000  0.00000000  1
  P  P1  1  0.50000000  0.50000000  0.50000000  1
  Mo  Mo2  1  0.50000000  0.50000000  0.00000000  1
  Li  Li3  1  0.50000000  0.00000000  0.50000000  1
  Li  Li4  1  0.00000000  0.50000000  0.50000000  1
  Te  Te5  1  0.47671746  0.90486382  0.23470509  1
  Te  Te6  1  0.53907933  0.49548619  0.19604709  1
  Te  Te7  1  0.24174541  0.55541207  0.76416396  1
  Te  Te8  1  0.06142624  0.91984831  0.79845553  1
  Sb  Sb9  1  0.00860795  0.02044990  0.21975934  1
  Sb  Sb10  1  0.97246025  0.02133541  0.87044195  1
