# generated using pymatgen
data_LiF
_symmetry_space_group_name_H-M   'P 1'
_cell_length_a   8.74038908
_cell_length_b   12.35075123
_cell_length_c   8.34857648
_cell_angle_alpha   90.00000000
_cell_angle_beta   90.00000000
_cell_angle_gamma   90.00000000
_symmetry_Int_Tables_number   1
_chemical_formula_structural   LiF
_chemical_formula_sum   'Li24 F24'
_cell_volume   901.23193041
_cell_formula_units_Z   24
loop_
 _symmetry_equiv_pos_site_id
 _symmetry_equiv_pos_as_xyz
  1  'x, y, z'
loop_
 _atom_site_type_symbol
 _atom_site_label
 _atom_site_symmetry_multiplicity
 _atom_site_fract_x
 _atom_site_fract_y
 _atom_site_fract_z
 _atom_site_occupancy
  F  F0  1  0.68758901  0.52435605  0.00000000  1
  F  F1  1  0.31241099  0.47564395  0.00000000  1
  F  F2  1  0.81241099  0.02435605  -0.00000000  1
  F  F3  1  0.18758901  0.97564395  0.00000000  1
  F  F4  1  0.99023633  0.81250604  0.29987924  1
  F  F5  1  0.00976367  0.18749396  0.29987924  1
  F  F6  1  0.50976367  0.31250604  0.70012076  1
  F  F7  1  0.49023633  0.68749396  0.70012076  1
  F  F8  1  0.00976367  0.18749396  0.70012076  1
  F  F9  1  0.99023633  0.81250604  0.70012076  1
  F  F10  1  0.49023633  0.68749396  0.29987924  1
  F  F11  1  0.50976367  0.31250604  0.29987924  1
  F  F12  1  0.28557297  0.45243695  0.11036075  1
  F  F13  1  0.71442703  0.54756305  0.11036075  1
  F  F14  1  0.21442703  0.95243695  0.88963925  1
  F  F15  1  0.78557297  0.04756305  0.88963925  1
  F  F16  1  0.71442703  0.54756305  0.88963925  1
  F  F17  1  0.28557297  0.45243695  0.88963925  1
  F  F18  1  0.78557297  0.04756305  0.11036075  1
  F  F19  1  0.21442703  0.95243695  0.11036075  1
  F  F20  1  0.00000000  0.50000000  0.83180377  1
  F  F21  1  0.50000000  0.00000000  0.16819623  1
  F  F22  1  0.00000000  0.50000000  0.16819623  1
  F  F23  1  0.50000000  0.00000000  0.83180377  1
  Li  Li24  1  0.00000000  0.50000000  0.67765383  1
  Li  Li25  1  0.50000000  0.00000000  0.32234617  1
  Li  Li26  1  0.00000000  0.50000000  0.32234617  1
  Li  Li27  1  0.50000000  0.00000000  0.67765383  1
  Li  Li28  1  0.00000000  0.00000000  0.00000000  1
  Li  Li29  1  0.50000000  0.50000000  -0.00000000  1
  Li  Li30  1  0.10567969  0.80564358  -0.00000000  1
  Li  Li31  1  0.89432031  0.19435642  -0.00000000  1
  Li  Li32  1  0.39432031  0.30564358  0.00000000  1
  Li  Li33  1  0.60567969  0.69435642  0.00000000  1
  Li  Li34  1  0.00000000  0.50000000  0.00000000  1
  Li  Li35  1  0.50000000  0.00000000  -0.00000000  1
  Li  Li36  1  0.27893721  0.24498449  0.25482658  1
  Li  Li37  1  -0.27893721  -0.24498449  0.25482658  1
  Li  Li38  1  0.22106279  0.74498449  -0.25482658  1
  Li  Li39  1  0.77893721  0.25501551  -0.25482658  1
  Li  Li40  1  -0.27893721  -0.24498449  -0.25482658  1
  Li  Li41  1  0.27893721  0.24498449  -0.25482658  1
  Li  Li42  1  0.77893721  0.25501551  0.25482658  1
  Li  Li43  1  0.22106279  0.74498449  0.25482658  1
  Li  Li44  1  0.30601109  0.92728196  0.00000000  1
  Li  Li45  1  0.69398891  0.07271804  -0.00000000  1
  Li  Li46  1  0.19398891  0.42728196  0.00000000  1
  Li  Li47  1  0.80601109  0.57271804  -0.00000000  1
