# generated using pymatgen
data_LiF
_symmetry_space_group_name_H-M   'P 1'
_cell_length_a   7.03148256
_cell_length_b   7.50546725
_cell_length_c   10.00088203
_cell_angle_alpha   90.00000000
_cell_angle_beta   90.00000000
_cell_angle_gamma   90.00000000
_symmetry_Int_Tables_number   1
_chemical_formula_structural   LiF
_chemical_formula_sum   'Li24 F24'
_cell_volume   527.79216939
_cell_formula_units_Z   24
loop_
 _symmetry_equiv_pos_site_id
 _symmetry_equiv_pos_as_xyz
  1  'x, y, z'
loop_
 _atom_site_type_symbol
 _atom_site_label
 _atom_site_symmetry_multiplicity
 _atom_site_fract_x
 _atom_site_fract_y
 _atom_site_fract_z
 _atom_site_occupancy
  F  F0  1  0.87710216  0.64579598  0.63369223  1
  F  F1  1  0.12289784  0.35420402  0.63369223  1
  F  F2  1  0.62289784  0.14579598  0.36630777  1
  F  F3  1  0.37710216  0.85420402  0.36630777  1
  F  F4  1  0.12289784  0.35420402  0.36630777  1
  F  F5  1  0.87710216  0.64579598  0.36630777  1
  F  F6  1  0.37710216  0.85420402  0.63369223  1
  F  F7  1  0.62289784  0.14579598  0.63369223  1
  F  F8  1  0.88563399  0.03854184  0.53873231  1
  F  F9  1  0.11436601  0.96145816  0.53873231  1
  F  F10  1  0.61436601  0.53854184  0.46126769  1
  F  F11  1  0.38563399  0.46145816  0.46126769  1
  F  F12  1  0.11436601  0.96145816  0.46126769  1
  F  F13  1  0.88563399  0.03854184  0.46126769  1
  F  F14  1  0.38563399  0.46145816  0.53873231  1
  F  F15  1  0.61436601  0.53854184  0.53873231  1
  F  F16  1  0.81485684  0.72404028  0.00000000  1
  F  F17  1  0.18514316  0.27595972  0.00000000  1
  F  F18  1  0.68514316  0.22404028  0.00000000  1
  F  F19  1  0.31485684  0.77595972  0.00000000  1
  F  F20  1  0.00000000  0.50000000  0.50000000  1
  F  F21  1  0.50000000  0.00000000  0.50000000  1
  F  F22  1  0.00000000  0.00000000  0.50000000  1
  F  F23  1  0.50000000  0.50000000  0.50000000  1
  Li  Li24  1  0.44758841  0.33618462  0.00000000  1
  Li  Li25  1  0.55241159  0.66381538  0.00000000  1
  Li  Li26  1  0.05241159  0.83618462  0.00000000  1
  Li  Li27  1  0.94758841  0.16381538  0.00000000  1
  Li  Li28  1  0.31283177  0.48427208  0.22542777  1
  Li  Li29  1  -0.31283177  -0.48427208  0.22542777  1
  Li  Li30  1  0.18716823  0.98427208  -0.22542777  1
  Li  Li31  1  0.81283177  0.01572792  -0.22542777  1
  Li  Li32  1  -0.31283177  -0.48427208  -0.22542777  1
  Li  Li33  1  0.31283177  0.48427208  -0.22542777  1
  Li  Li34  1  0.81283177  0.01572792  0.22542777  1
  Li  Li35  1  0.18716823  0.98427208  0.22542777  1
  Li  Li36  1  0.00000000  0.00000000  0.00000000  1
  Li  Li37  1  0.50000000  0.50000000  0.00000000  1
  Li  Li38  1  0.00000000  0.50000000  0.38308701  1
  Li  Li39  1  0.50000000  0.00000000  0.61691299  1
  Li  Li40  1  0.00000000  0.50000000  0.61691299  1
  Li  Li41  1  0.50000000  0.00000000  0.38308701  1
  Li  Li42  1  0.00000000  0.50000000  0.00000000  1
  Li  Li43  1  0.50000000  0.00000000  0.00000000  1
  Li  Li44  1  0.22082476  0.68895596  0.50000000  1
  Li  Li45  1  0.77917524  0.31104404  0.50000000  1
  Li  Li46  1  0.27917524  0.18895596  0.50000000  1
  Li  Li47  1  0.72082476  0.81104404  0.50000000  1
