# generated using pymatgen
data_LiF
_symmetry_space_group_name_H-M   'P 1'
_cell_length_a   5.57325711
_cell_length_b   8.86334324
_cell_length_c   17.43237908
_cell_angle_alpha   90.00000000
_cell_angle_beta   90.00000000
_cell_angle_gamma   90.00000000
_symmetry_Int_Tables_number   1
_chemical_formula_structural   LiF
_chemical_formula_sum   'Li24 F24'
_cell_volume   861.11927010
_cell_formula_units_Z   24
loop_
 _symmetry_equiv_pos_site_id
 _symmetry_equiv_pos_as_xyz
  1  'x, y, z'
loop_
 _atom_site_type_symbol
 _atom_site_label
 _atom_site_symmetry_multiplicity
 _atom_site_fract_x
 _atom_site_fract_y
 _atom_site_fract_z
 _atom_site_occupancy
  F  F0  1  0.84302658  0.61473768  0.51752577  1
  F  F1  1  0.65697342  0.38526232  0.01752577  1
  F  F2  1  0.15697342  0.11473768  0.48247423  1
  F  F3  1  0.34302658  0.88526232  0.98247423  1
  F  F4  1  0.15697342  0.38526232  0.48247423  1
  F  F5  1  0.34302658  0.61473768  0.98247423  1
  F  F6  1  0.84302658  0.88526232  0.51752577  1
  F  F7  1  0.65697342  0.11473768  0.01752577  1
  F  F8  1  0.60483428  0.51749384  0.05388486  1
  F  F9  1  0.89516572  0.48250616  0.55388486  1
  F  F10  1  0.39516572  0.01749384  0.94611514  1
  F  F11  1  0.10483428  0.98250616  0.44611514  1
  F  F12  1  0.39516572  0.48250616  0.94611514  1
  F  F13  1  0.10483428  0.51749384  0.44611514  1
  F  F14  1  0.60483428  0.98250616  0.05388486  1
  F  F15  1  0.89516572  0.01749384  0.55388486  1
  F  F16  1  0.00000000  0.00000000  0.00000000  1
  F  F17  1  0.50000000  0.00000000  0.50000000  1
  F  F18  1  0.00000000  0.50000000  0.00000000  1
  F  F19  1  0.50000000  0.50000000  0.50000000  1
  F  F20  1  0.14850537  0.25000000  0.23769104  1
  F  F21  1  0.35149463  0.75000000  0.73769104  1
  F  F22  1  0.85149463  0.75000000  0.76230896  1
  F  F23  1  0.64850537  0.25000000  0.26230896  1
  Li  Li24  1  0.56220839  0.40861187  0.86589499  1
  Li  Li25  1  -0.06220839  -0.40861187  1.36589499  1
  Li  Li26  1  -0.56220839  0.90861187  -0.86589499  1
  Li  Li27  1  1.06220839  0.09138813  -0.36589499  1
  Li  Li28  1  -0.56220839  -0.40861187  -0.86589499  1
  Li  Li29  1  1.06220839  0.40861187  -0.36589499  1
  Li  Li30  1  0.56220839  0.09138813  0.86589499  1
  Li  Li31  1  -0.06220839  0.90861187  1.36589499  1
  Li  Li32  1  0.99756819  0.25000000  0.26854547  1
  Li  Li33  1  0.50243181  0.75000000  0.76854547  1
  Li  Li34  1  0.00243181  0.75000000  0.73145453  1
  Li  Li35  1  0.49756819  0.25000000  0.23145453  1
  Li  Li36  1  0.89924811  0.85795043  0.68160856  1
  Li  Li37  1  0.60075189  0.14204957  0.18160856  1
  Li  Li38  1  0.10075189  0.35795043  0.31839144  1
  Li  Li39  1  0.39924811  0.64204957  0.81839144  1
  Li  Li40  1  0.10075189  0.14204957  0.31839144  1
  Li  Li41  1  0.39924811  0.85795043  0.81839144  1
  Li  Li42  1  0.89924811  0.64204957  0.68160856  1
  Li  Li43  1  0.60075189  0.35795043  0.18160856  1
  Li  Li44  1  0.00000000  0.00000000  0.50000000  1
  Li  Li45  1  0.50000000  0.00000000  0.00000000  1
  Li  Li46  1  0.00000000  0.50000000  0.50000000  1
  Li  Li47  1  0.50000000  0.50000000  -0.00000000  1
