# generated using pymatgen
data_LiF
_symmetry_space_group_name_H-M   'P 1'
_cell_length_a   8.64063421
_cell_length_b   9.86755846
_cell_length_c   7.84259325
_cell_angle_alpha   90.00000000
_cell_angle_beta   90.00000000
_cell_angle_gamma   90.00000000
_symmetry_Int_Tables_number   1
_chemical_formula_structural   LiF
_chemical_formula_sum   'Li24 F24'
_cell_volume   668.67489693
_cell_formula_units_Z   24
loop_
 _symmetry_equiv_pos_site_id
 _symmetry_equiv_pos_as_xyz
  1  'x, y, z'
loop_
 _atom_site_type_symbol
 _atom_site_label
 _atom_site_symmetry_multiplicity
 _atom_site_fract_x
 _atom_site_fract_y
 _atom_site_fract_z
 _atom_site_occupancy
  F  F0  1  0.40488225  0.62005991  0.48431705  1
  F  F1  1  0.09511775  0.37994009  0.98431705  1
  F  F2  1  0.59511775  0.12005991  0.51568295  1
  F  F3  1  0.90488225  0.87994009  0.01568295  1
  F  F4  1  0.59511775  0.37994009  0.51568295  1
  F  F5  1  0.90488225  0.62005991  0.01568295  1
  F  F6  1  0.40488225  0.87994009  0.48431705  1
  F  F7  1  0.09511775  0.12005991  0.98431705  1
  F  F8  1  0.36307343  0.60547944  0.07640164  1
  F  F9  1  0.13692657  0.39452056  0.57640164  1
  F  F10  1  0.63692657  0.10547944  0.92359836  1
  F  F11  1  0.86307343  0.89452056  0.42359836  1
  F  F12  1  0.63692657  0.39452056  0.92359836  1
  F  F13  1  0.86307343  0.60547944  0.42359836  1
  F  F14  1  0.36307343  0.89452056  0.07640164  1
  F  F15  1  0.13692657  0.10547944  0.57640164  1
  F  F16  1  0.78581692  0.25000000  0.14484824  1
  F  F17  1  0.71418308  0.75000000  0.64484824  1
  F  F18  1  0.21418308  0.75000000  0.85515176  1
  F  F19  1  0.28581692  0.25000000  0.35515176  1
  F  F20  1  0.95378408  0.25000000  0.17787528  1
  F  F21  1  0.54621592  0.75000000  0.67787528  1
  F  F22  1  0.04621592  0.75000000  0.82212472  1
  F  F23  1  0.45378408  0.25000000  0.32212472  1
  Li  Li24  1  0.00000000  0.00000000  0.00000000  1
  Li  Li25  1  0.50000000  0.00000000  0.50000000  1
  Li  Li26  1  0.00000000  0.50000000  0.00000000  1
  Li  Li27  1  0.50000000  0.50000000  0.50000000  1
  Li  Li28  1  0.40161092  0.65776632  0.66557204  1
  Li  Li29  1  0.09838908  -0.65776632  1.16557204  1
  Li  Li30  1  -0.40161092  1.15776632  -0.66557204  1
  Li  Li31  1  0.90161092  -0.15776632  -0.16557204  1
  Li  Li32  1  -0.40161092  -0.65776632  -0.66557204  1
  Li  Li33  1  0.90161092  0.65776632  -0.16557204  1
  Li  Li34  1  0.40161092  -0.15776632  0.66557204  1
  Li  Li35  1  0.09838908  1.15776632  1.16557204  1
  Li  Li36  1  0.33821983  0.94445625  0.94373403  1
  Li  Li37  1  0.16178017  0.05554375  0.44373403  1
  Li  Li38  1  0.66178017  0.44445625  0.05626597  1
  Li  Li39  1  0.83821983  0.55554375  0.55626597  1
  Li  Li40  1  0.66178017  0.05554375  0.05626597  1
  Li  Li41  1  0.83821983  0.94445625  0.55626597  1
  Li  Li42  1  0.33821983  0.55554375  0.94373403  1
  Li  Li43  1  0.16178017  0.44445625  0.44373403  1
  Li  Li44  1  0.00000000  0.00000000  0.50000000  1
  Li  Li45  1  0.50000000  0.00000000  0.00000000  1
  Li  Li46  1  0.00000000  0.50000000  0.50000000  1
  Li  Li47  1  0.50000000  0.50000000  0.00000000  1
