# generated using pymatgen
data_LiF
_symmetry_space_group_name_H-M   'P 1'
_cell_length_a   15.30140338
_cell_length_b   15.30140338
_cell_length_c   4.78467873
_cell_angle_alpha   90.00000000
_cell_angle_beta   90.00000000
_cell_angle_gamma   120.00000000
_symmetry_Int_Tables_number   1
_chemical_formula_structural   LiF
_chemical_formula_sum   'Li36 F36'
_cell_volume   970.16575901
_cell_formula_units_Z   36
loop_
 _symmetry_equiv_pos_site_id
 _symmetry_equiv_pos_as_xyz
  1  'x, y, z'
loop_
 _atom_site_type_symbol
 _atom_site_label
 _atom_site_symmetry_multiplicity
 _atom_site_fract_x
 _atom_site_fract_y
 _atom_site_fract_z
 _atom_site_occupancy
  F  F0  1  0.66666667  0.33333333  0.25000000  1
  F  F1  1  0.33333333  0.66666667  0.75000000  1
  F  F2  1  0.50000000  0.00000000  -0.00000000  1
  F  F3  1  0.00000000  0.50000000  0.00000000  1
  F  F4  1  0.50000000  0.50000000  -0.00000000  1
  F  F5  1  0.50000000  0.00000000  0.50000000  1
  F  F6  1  0.00000000  0.50000000  0.50000000  1
  F  F7  1  0.50000000  0.50000000  0.50000000  1
  F  F8  1  0.29924925  0.14916930  0.34131380  1
  F  F9  1  -0.14916930  0.15007995  0.34131380  1
  F  F10  1  -0.15007995  -0.29924925  0.34131380  1
  F  F11  1  -0.29924925  -0.14916930  0.84131380  1
  F  F12  1  0.14916930  -0.15007995  0.84131380  1
  F  F13  1  0.15007995  0.29924925  0.84131380  1
  F  F14  1  -0.29924925  -0.14916930  -0.34131380  1
  F  F15  1  0.14916930  -0.15007995  -0.34131380  1
  F  F16  1  0.15007995  0.29924925  -0.34131380  1
  F  F17  1  0.29924925  0.14916930  0.15868620  1
  F  F18  1  -0.14916930  0.15007995  0.15868620  1
  F  F19  1  -0.15007995  -0.29924925  0.15868620  1
  F  F20  1  0.12063418  0.04492984  0.01198340  1
  F  F21  1  0.95507016  0.07570434  0.01198340  1
  F  F22  1  0.92429566  0.87936582  0.01198340  1
  F  F23  1  0.87936582  0.95507016  0.51198340  1
  F  F24  1  0.04492984  0.92429566  0.51198340  1
  F  F25  1  0.07570434  0.12063418  0.51198340  1
  F  F26  1  0.87936582  0.95507016  0.98801660  1
  F  F27  1  0.04492984  0.92429566  0.98801660  1
  F  F28  1  0.07570434  0.12063418  0.98801660  1
  F  F29  1  0.12063418  0.04492984  0.48801660  1
  F  F30  1  0.95507016  0.07570434  0.48801660  1
  F  F31  1  0.92429566  0.87936582  0.48801660  1
  F  F32  1  0.00000000  0.00000000  0.00000000  1
  F  F33  1  0.00000000  0.00000000  0.50000000  1
  F  F34  1  0.33333333  0.66666667  0.25000000  1
  F  F35  1  0.66666667  0.33333333  0.75000000  1
  Li  Li36  1  0.81437268  0.82945576  0.25000000  1
  Li  Li37  1  0.17054424  0.98491693  0.25000000  1
  Li  Li38  1  0.01508307  0.18562732  0.25000000  1
  Li  Li39  1  0.18562732  0.17054424  0.75000000  1
  Li  Li40  1  0.82945576  0.01508307  0.75000000  1
  Li  Li41  1  0.98491693  0.81437268  0.75000000  1
  Li  Li42  1  0.67937524  0.97347453  0.25000000  1
  Li  Li43  1  0.02652547  0.70590071  0.25000000  1
  Li  Li44  1  0.29409929  0.32062476  0.25000000  1
  Li  Li45  1  0.32062476  0.02652547  0.75000000  1
  Li  Li46  1  0.97347453  0.29409929  0.75000000  1
  Li  Li47  1  0.70590071  0.67937524  0.75000000  1
  Li  Li48  1  0.61024493  0.73859421  0.25000000  1
  Li  Li49  1  0.26140579  0.87165072  0.25000000  1
  Li  Li50  1  0.12834928  0.38975507  0.25000000  1
  Li  Li51  1  0.38975507  0.26140579  0.75000000  1
  Li  Li52  1  0.73859421  0.12834928  0.75000000  1
  Li  Li53  1  0.87165072  0.61024493  0.75000000  1
  Li  Li54  1  0.56772794  0.16953325  0.25000000  1
  Li  Li55  1  0.83046675  0.39819469  0.25000000  1
  Li  Li56  1  0.60180531  0.43227206  0.25000000  1
  Li  Li57  1  0.43227206  0.83046675  0.75000000  1
  Li  Li58  1  0.16953325  0.60180531  0.75000000  1
  Li  Li59  1  0.39819469  0.56772794  0.75000000  1
  Li  Li60  1  0.03912245  0.80747110  0.51353319  1
  Li  Li61  1  0.19252890  0.23165136  0.51353319  1
  Li  Li62  1  0.76834864  0.96087755  0.51353319  1
  Li  Li63  1  0.96087755  0.19252890  0.01353319  1
  Li  Li64  1  0.80747110  0.76834864  0.01353319  1
  Li  Li65  1  0.23165136  0.03912245  0.01353319  1
  Li  Li66  1  0.96087755  0.19252890  0.48646681  1
  Li  Li67  1  0.80747110  0.76834864  0.48646681  1
  Li  Li68  1  0.23165136  0.03912245  0.48646681  1
  Li  Li69  1  0.03912245  0.80747110  0.98646681  1
  Li  Li70  1  0.19252890  0.23165136  0.98646681  1
  Li  Li71  1  0.76834864  0.96087755  0.98646681  1
