# generated using pymatgen
data_LiY2Mo2P2Se
_symmetry_space_group_name_H-M   'P 1'
_cell_length_a   4.82496483
_cell_length_b   4.98095548
_cell_length_c   6.69306827
_cell_angle_alpha   93.74739299
_cell_angle_beta   98.52148479
_cell_angle_gamma   105.34542339
_symmetry_Int_Tables_number   1
_chemical_formula_structural   LiY2Mo2P2Se
_chemical_formula_sum   'Li1 Y2 Mo2 P2 Se1'
_cell_volume   152.48185769
_cell_formula_units_Z   1
loop_
 _symmetry_equiv_pos_site_id
 _symmetry_equiv_pos_as_xyz
  1  'x, y, z'
loop_
 _atom_site_type_symbol
 _atom_site_label
 _atom_site_symmetry_multiplicity
 _atom_site_fract_x
 _atom_site_fract_y
 _atom_site_fract_z
 _atom_site_occupancy
  Se  Se0  1  0.00000000  0.00000000  0.00000000  1
  Y  Y1  1  0.50000000  0.50000000  0.50000000  1
  Y  Y2  1  0.50000000  0.50000000  0.00000000  1
  P  P3  1  0.50000000  0.00000000  0.50000000  1
  P  P4  1  0.00000000  0.50000000  0.50000000  1
  Mo  Mo5  1  0.68327917  0.68035088  0.13406435  1
  Mo  Mo6  1  0.70273677  0.86277007  0.61297206  1
  Li  Li7  1  0.16251171  0.41226716  0.09247442  1
