# generated using pymatgen
data_Li2Si4Te3F12
_symmetry_space_group_name_H-M   'P 1'
_cell_length_a   14.94269199
_cell_length_b   14.94269199
_cell_length_c   4.80195786
_cell_angle_alpha   90.00000000
_cell_angle_beta   90.00000000
_cell_angle_gamma   90.00000000
_symmetry_Int_Tables_number   1
_chemical_formula_structural   Li2Si4Te3F12
_chemical_formula_sum   'Li8 Si16 Te12 F48'
_cell_volume   1072.20057059
_cell_formula_units_Z   4
loop_
 _symmetry_equiv_pos_site_id
 _symmetry_equiv_pos_as_xyz
  1  'x, y, z'
loop_
 _atom_site_type_symbol
 _atom_site_label
 _atom_site_symmetry_multiplicity
 _atom_site_fract_x
 _atom_site_fract_y
 _atom_site_fract_z
 _atom_site_occupancy
  F  F0  1  0.26831391  0.43755050  0.40127854  1
  F  F1  1  0.23168609  -0.43755050  0.90127854  1
  F  F2  1  -0.18755050  1.01831391  0.65127854  1
  F  F3  1  0.68755050  -0.01831391  1.15127854  1
  F  F4  1  0.23168609  0.43755050  0.09872146  1
  F  F5  1  0.26831391  -0.43755050  -0.40127854  1
  F  F6  1  0.68755050  1.01831391  -0.15127854  1
  F  F7  1  -0.18755050  -0.01831391  0.34872146  1
  F  F8  1  -0.26831391  -0.43755050  -0.40127854  1
  F  F9  1  0.76831391  0.43755050  0.09872146  1
  F  F10  1  1.18755050  -0.01831391  0.34872146  1
  F  F11  1  0.31244950  1.01831391  -0.15127854  1
  F  F12  1  0.76831391  -0.43755050  0.90127854  1
  F  F13  1  -0.26831391  0.43755050  0.40127854  1
  F  F14  1  0.31244950  -0.01831391  1.15127854  1
  F  F15  1  1.18755050  1.01831391  0.65127854  1
  F  F16  1  0.76831391  0.93755050  0.90127854  1
  F  F17  1  0.73168609  0.06244950  1.40127854  1
  F  F18  1  0.31244950  1.51831391  1.15127854  1
  F  F19  1  1.18755050  0.48168609  1.65127854  1
  F  F20  1  0.73168609  0.93755050  0.59872146  1
  F  F21  1  0.76831391  0.06244950  0.09872146  1
  F  F22  1  1.18755050  1.51831391  0.34872146  1
  F  F23  1  0.31244950  0.48168609  0.84872146  1
  F  F24  1  0.23168609  0.06244950  0.09872146  1
  F  F25  1  1.26831391  0.93755050  0.59872146  1
  F  F26  1  1.68755050  0.48168609  0.84872146  1
  F  F27  1  0.81244950  1.51831391  0.34872146  1
  F  F28  1  1.26831391  0.06244950  1.40127854  1
  F  F29  1  0.23168609  0.93755050  0.90127854  1
  F  F30  1  0.81244950  0.48168609  1.65127854  1
  F  F31  1  1.68755050  1.51831391  1.15127854  1
  F  F32  1  0.00000000  0.54484844  0.90560965  1
  F  F33  1  0.50000000  0.45515156  0.40560965  1
  F  F34  1  0.70515156  0.75000000  0.15560965  1
  F  F35  1  0.79484844  0.25000000  0.65560965  1
  F  F36  1  0.50000000  0.54484844  0.59439035  1
  F  F37  1  0.00000000  0.45515156  0.09439035  1
  F  F38  1  0.79484844  0.75000000  0.34439035  1
  F  F39  1  0.70515156  0.25000000  0.84439035  1
  F  F40  1  0.50000000  0.04484844  0.40560965  1
  F  F41  1  0.00000000  0.95515156  0.90560965  1
  F  F42  1  0.20515156  0.25000000  0.65560965  1
  F  F43  1  0.29484844  0.75000000  0.15560965  1
  F  F44  1  0.00000000  0.04484844  0.09439035  1
  F  F45  1  0.50000000  0.95515156  0.59439035  1
  F  F46  1  0.29484844  0.25000000  0.84439035  1
  F  F47  1  0.20515156  0.75000000  0.34439035  1
  Li  Li48  1  0.00000000  0.00000000  0.50000000  1
  Li  Li49  1  0.50000000  0.00000000  0.00000000  1
  Li  Li50  1  0.25000000  0.75000000  0.75000000  1
  Li  Li51  1  0.25000000  0.25000000  0.25000000  1
  Li  Li52  1  0.50000000  0.50000000  -0.00000000  1
  Li  Li53  1  0.00000000  0.50000000  0.50000000  1
  Li  Li54  1  0.75000000  0.25000000  0.25000000  1
  Li  Li55  1  0.75000000  0.75000000  0.75000000  1
  Si  Si56  1  0.87845360  0.00000000  0.00000000  1
  Si  Si57  1  0.62154640  0.00000000  0.50000000  1
  Si  Si58  1  0.25000000  0.62845360  0.25000000  1
  Si  Si59  1  0.25000000  0.37154640  0.75000000  1
  Si  Si60  1  0.12154640  0.00000000  0.00000000  1
  Si  Si61  1  0.37845360  0.00000000  0.50000000  1
  Si  Si62  1  0.75000000  0.37154640  0.75000000  1
  Si  Si63  1  0.75000000  0.62845360  0.25000000  1
  Si  Si64  1  0.37845360  0.50000000  0.50000000  1
  Si  Si65  1  0.12154640  0.50000000  -0.00000000  1
  Si  Si66  1  0.75000000  0.12845360  0.75000000  1
  Si  Si67  1  0.75000000  0.87154640  0.25000000  1
  Si  Si68  1  0.62154640  0.50000000  0.50000000  1
  Si  Si69  1  0.87845360  0.50000000  0.00000000  1
  Si  Si70  1  0.25000000  0.87154640  0.25000000  1
  Si  Si71  1  0.25000000  0.12845360  0.75000000  1
  Te  Te72  1  0.00000000  0.25000000  0.37500000  1
  Te  Te73  1  0.00000000  0.75000000  0.62500000  1
  Te  Te74  1  0.50000000  0.75000000  0.87500000  1
  Te  Te75  1  0.50000000  0.25000000  0.12500000  1
  Te  Te76  1  0.00000000  0.25000000  0.06518304  1
  Te  Te77  1  0.00000000  0.75000000  0.31518304  1
  Te  Te78  1  0.50000000  0.25000000  0.43481696  1
  Te  Te79  1  0.50000000  0.75000000  0.18481696  1
  Te  Te80  1  0.50000000  0.75000000  0.56518304  1
  Te  Te81  1  0.50000000  0.25000000  0.81518304  1
  Te  Te82  1  0.00000000  0.75000000  0.93481696  1
  Te  Te83  1  0.00000000  0.25000000  0.68481696  1
