# generated using pymatgen
data_LiF
_symmetry_space_group_name_H-M   'P 1'
_cell_length_a   7.09931366
_cell_length_b   7.09931366
_cell_length_c   25.88549043
_cell_angle_alpha   90.00000000
_cell_angle_beta   90.00000000
_cell_angle_gamma   90.00000000
_symmetry_Int_Tables_number   1
_chemical_formula_structural   LiF
_chemical_formula_sum   'Li64 F64'
_cell_volume   1304.63530293
_cell_formula_units_Z   64
loop_
 _symmetry_equiv_pos_site_id
 _symmetry_equiv_pos_as_xyz
  1  'x, y, z'
loop_
 _atom_site_type_symbol
 _atom_site_label
 _atom_site_symmetry_multiplicity
 _atom_site_fract_x
 _atom_site_fract_y
 _atom_site_fract_z
 _atom_site_occupancy
  F  F0  1  0.40444297  0.29300352  0.77277022  1
  F  F1  1  0.09555703  -0.29300352  1.27277022  1
  F  F2  1  -0.04300352  1.15444297  1.02277022  1
  F  F3  1  0.54300352  -0.15444297  1.52277022  1
  F  F4  1  0.09555703  0.29300352  -0.77277022  1
  F  F5  1  0.40444297  -0.29300352  -0.27277022  1
  F  F6  1  0.54300352  1.15444297  -0.02277022  1
  F  F7  1  -0.04300352  -0.15444297  -0.52277022  1
  F  F8  1  -0.40444297  -0.29300352  -0.77277022  1
  F  F9  1  0.90444297  0.29300352  -0.27277022  1
  F  F10  1  1.04300352  -0.15444297  -0.02277022  1
  F  F11  1  0.45699648  1.15444297  -0.52277022  1
  F  F12  1  0.90444297  -0.29300352  0.77277022  1
  F  F13  1  -0.40444297  0.29300352  1.27277022  1
  F  F14  1  0.45699648  -0.15444297  1.02277022  1
  F  F15  1  1.04300352  1.15444297  1.52277022  1
  F  F16  1  0.90444297  0.79300352  1.27277022  1
  F  F17  1  0.59555703  0.20699648  1.77277022  1
  F  F18  1  0.45699648  1.65444297  1.52277022  1
  F  F19  1  1.04300352  0.34555703  2.02277022  1
  F  F20  1  0.59555703  0.79300352  -0.27277022  1
  F  F21  1  0.90444297  0.20699648  0.22722978  1
  F  F22  1  1.04300352  1.65444297  0.47722978  1
  F  F23  1  0.45699648  0.34555703  -0.02277022  1
  F  F24  1  0.09555703  0.20699648  -0.27277022  1
  F  F25  1  1.40444297  0.79300352  0.22722978  1
  F  F26  1  1.54300352  0.34555703  0.47722978  1
  F  F27  1  0.95699648  1.65444297  -0.02277022  1
  F  F28  1  1.40444297  0.20699648  1.27277022  1
  F  F29  1  0.09555703  0.79300352  1.77277022  1
  F  F30  1  0.95699648  0.34555703  1.52277022  1
  F  F31  1  1.54300352  1.65444297  2.02277022  1
  F  F32  1  0.00000000  0.25000000  0.12500000  1
  F  F33  1  0.00000000  0.75000000  0.37500000  1
  F  F34  1  0.00000000  0.75000000  0.87500000  1
  F  F35  1  0.00000000  0.25000000  0.62500000  1
  F  F36  1  0.50000000  0.75000000  0.62500000  1
  F  F37  1  0.50000000  0.25000000  0.87500000  1
  F  F38  1  0.50000000  0.25000000  0.37500000  1
  F  F39  1  0.50000000  0.75000000  0.12500000  1
  F  F40  1  0.00000000  0.00000000  0.00000000  1
  F  F41  1  0.50000000  -0.00000000  0.50000000  1
  F  F42  1  0.25000000  0.75000000  0.25000000  1
  F  F43  1  0.25000000  0.25000000  0.75000000  1
  F  F44  1  0.50000000  -0.00000000  0.00000000  1
  F  F45  1  0.00000000  0.00000000  0.50000000  1
  F  F46  1  0.25000000  0.75000000  0.75000000  1
  F  F47  1  0.25000000  0.25000000  0.25000000  1
  F  F48  1  0.50000000  0.50000000  0.50000000  1
  F  F49  1  0.00000000  0.50000000  0.00000000  1
  F  F50  1  0.75000000  0.25000000  0.75000000  1
  F  F51  1  0.75000000  0.75000000  0.25000000  1
  F  F52  1  0.00000000  0.50000000  0.50000000  1
  F  F53  1  0.50000000  0.50000000  0.00000000  1
  F  F54  1  0.75000000  0.25000000  0.25000000  1
  F  F55  1  0.75000000  0.75000000  0.75000000  1
  F  F56  1  0.00000000  0.25000000  0.37500000  1
  F  F57  1  0.00000000  0.75000000  0.62500000  1
  F  F58  1  0.50000000  0.25000000  0.62500000  1
  F  F59  1  0.50000000  0.75000000  0.37500000  1
  F  F60  1  0.50000000  0.75000000  0.87500000  1
  F  F61  1  0.50000000  0.25000000  0.12500000  1
  F  F62  1  0.00000000  0.75000000  0.12500000  1
  F  F63  1  0.00000000  0.25000000  0.87500000  1
  Li  Li64  1  0.15919623  0.90581940  0.41408957  1
  Li  Li65  1  0.34080377  0.09418060  0.91408957  1
  Li  Li66  1  0.34418060  0.90919623  0.66408957  1
  Li  Li67  1  0.15581940  0.09080377  0.16408957  1
  Li  Li68  1  0.34080377  0.90581940  0.58591043  1
  Li  Li69  1  0.15919623  0.09418060  0.08591043  1
  Li  Li70  1  0.15581940  0.90919623  0.33591043  1
  Li  Li71  1  0.34418060  0.09080377  0.83591043  1
  Li  Li72  1  0.84080377  0.09418060  0.58591043  1
  Li  Li73  1  0.65919623  0.90581940  0.08591043  1
  Li  Li74  1  0.65581940  0.09080377  0.33591043  1
  Li  Li75  1  0.84418060  0.90919623  0.83591043  1
  Li  Li76  1  0.65919623  0.09418060  0.41408957  1
  Li  Li77  1  0.84080377  0.90581940  0.91408957  1
  Li  Li78  1  0.84418060  0.09080377  0.66408957  1
  Li  Li79  1  0.65581940  0.90919623  0.16408957  1
  Li  Li80  1  0.65919623  0.40581940  0.91408957  1
  Li  Li81  1  0.84080377  0.59418060  0.41408957  1
  Li  Li82  1  0.84418060  0.40919623  0.16408957  1
  Li  Li83  1  0.65581940  0.59080377  0.66408957  1
  Li  Li84  1  0.84080377  0.40581940  0.08591043  1
  Li  Li85  1  0.65919623  0.59418060  0.58591043  1
  Li  Li86  1  0.65581940  0.40919623  0.83591043  1
  Li  Li87  1  0.84418060  0.59080377  0.33591043  1
  Li  Li88  1  0.34080377  0.59418060  0.08591043  1
  Li  Li89  1  0.15919623  0.40581940  0.58591043  1
  Li  Li90  1  0.15581940  0.59080377  0.83591043  1
  Li  Li91  1  0.34418060  0.40919623  0.33591043  1
  Li  Li92  1  0.15919623  0.59418060  0.91408957  1
  Li  Li93  1  0.34080377  0.40581940  0.41408957  1
  Li  Li94  1  0.34418060  0.59080377  0.16408957  1
  Li  Li95  1  0.15581940  0.40919623  0.66408957  1
  Li  Li96  1  0.45083391  0.00000000  0.25000000  1
  Li  Li97  1  0.04916609  -0.00000000  0.75000000  1
  Li  Li98  1  0.25000000  0.20083391  0.50000000  1
  Li  Li99  1  0.25000000  0.79916609  0.00000000  1
  Li  Li100  1  0.54916609  -0.00000000  0.75000000  1
  Li  Li101  1  0.95083391  0.00000000  0.25000000  1
  Li  Li102  1  0.75000000  0.79916609  0.50000000  1
  Li  Li103  1  0.75000000  0.20083391  0.00000000  1
  Li  Li104  1  0.95083391  0.50000000  0.75000000  1
  Li  Li105  1  0.54916609  0.50000000  0.25000000  1
  Li  Li106  1  0.75000000  0.70083391  0.00000000  1
  Li  Li107  1  0.75000000  0.29916609  0.50000000  1
  Li  Li108  1  0.04916609  0.50000000  0.25000000  1
  Li  Li109  1  0.45083391  0.50000000  0.75000000  1
  Li  Li110  1  0.25000000  0.29916609  0.00000000  1
  Li  Li111  1  0.25000000  0.70083391  0.50000000  1
  Li  Li112  1  0.00000000  0.25000000  0.92817765  1
  Li  Li113  1  0.00000000  0.75000000  0.17817765  1
  Li  Li114  1  0.50000000  0.25000000  0.07182235  1
  Li  Li115  1  0.50000000  0.75000000  0.82182235  1
  Li  Li116  1  0.00000000  0.75000000  0.07182235  1
  Li  Li117  1  0.00000000  0.25000000  0.82182235  1
  Li  Li118  1  0.50000000  0.75000000  0.92817765  1
  Li  Li119  1  0.50000000  0.25000000  0.17817765  1
  Li  Li120  1  0.50000000  0.75000000  0.42817765  1
  Li  Li121  1  0.50000000  0.25000000  0.67817765  1
  Li  Li122  1  0.00000000  0.75000000  0.57182235  1
  Li  Li123  1  0.00000000  0.25000000  0.32182235  1
  Li  Li124  1  0.50000000  0.25000000  0.57182235  1
  Li  Li125  1  0.50000000  0.75000000  0.32182235  1
  Li  Li126  1  0.00000000  0.25000000  0.42817765  1
  Li  Li127  1  0.00000000  0.75000000  0.67817765  1
