# generated using pymatgen
data_Li2Ca3F8
_symmetry_space_group_name_H-M   'P 1'
_cell_length_a   11.20698973
_cell_length_b   11.20698973
_cell_length_c   15.25712196
_cell_angle_alpha   90.00000000
_cell_angle_beta   90.00000000
_cell_angle_gamma   90.00000000
_symmetry_Int_Tables_number   1
_chemical_formula_structural   Li2Ca3F8
_chemical_formula_sum   'Li16 Ca24 F64'
_cell_volume   1916.24293199
_cell_formula_units_Z   8
loop_
 _symmetry_equiv_pos_site_id
 _symmetry_equiv_pos_as_xyz
  1  'x, y, z'
loop_
 _atom_site_type_symbol
 _atom_site_label
 _atom_site_symmetry_multiplicity
 _atom_site_fract_x
 _atom_site_fract_y
 _atom_site_fract_z
 _atom_site_occupancy
  Ca  Ca0  1  0.35829666  0.00000000  0.25000000  1
  Ca  Ca1  1  0.14170334  0.00000000  0.75000000  1
  Ca  Ca2  1  0.25000000  0.10829666  0.50000000  1
  Ca  Ca3  1  0.25000000  0.89170334  -0.00000000  1
  Ca  Ca4  1  0.64170334  0.00000000  0.75000000  1
  Ca  Ca5  1  0.85829666  0.00000000  0.25000000  1
  Ca  Ca6  1  0.75000000  0.89170334  0.50000000  1
  Ca  Ca7  1  0.75000000  0.10829666  0.00000000  1
  Ca  Ca8  1  0.85829666  0.50000000  0.75000000  1
  Ca  Ca9  1  0.64170334  0.50000000  0.25000000  1
  Ca  Ca10  1  0.75000000  0.60829666  0.00000000  1
  Ca  Ca11  1  0.75000000  0.39170334  0.50000000  1
  Ca  Ca12  1  0.14170334  0.50000000  0.25000000  1
  Ca  Ca13  1  0.35829666  0.50000000  0.75000000  1
  Ca  Ca14  1  0.25000000  0.39170334  -0.00000000  1
  Ca  Ca15  1  0.25000000  0.60829666  0.50000000  1
  Ca  Ca16  1  0.00000000  0.25000000  0.12500000  1
  Ca  Ca17  1  0.00000000  0.75000000  0.37500000  1
  Ca  Ca18  1  0.00000000  0.75000000  0.87500000  1
  Ca  Ca19  1  0.00000000  0.25000000  0.62500000  1
  Ca  Ca20  1  0.50000000  0.75000000  0.62500000  1
  Ca  Ca21  1  0.50000000  0.25000000  0.87500000  1
  Ca  Ca22  1  0.50000000  0.25000000  0.37500000  1
  Ca  Ca23  1  0.50000000  0.75000000  0.12500000  1
  F  F24  1  0.94950261  0.96735563  0.40664418  1
  F  F25  1  -0.44950261  -0.96735563  0.90664418  1
  F  F26  1  -0.71735563  1.69950261  0.65664418  1
  F  F27  1  1.21735563  -0.69950261  1.15664418  1
  F  F28  1  -0.44950261  0.96735563  -0.40664418  1
  F  F29  1  0.94950261  -0.96735563  0.09335582  1
  F  F30  1  1.21735563  1.69950261  0.34335582  1
  F  F31  1  -0.71735563  -0.69950261  -0.15664418  1
  F  F32  1  -0.94950261  -0.96735563  -0.40664418  1
  F  F33  1  1.44950261  0.96735563  0.09335582  1
  F  F34  1  1.71735563  -0.69950261  0.34335582  1
  F  F35  1  -0.21735563  1.69950261  -0.15664418  1
  F  F36  1  1.44950261  -0.96735563  0.40664418  1
  F  F37  1  -0.94950261  0.96735563  0.90664418  1
  F  F38  1  -0.21735563  -0.69950261  0.65664418  1
  F  F39  1  1.71735563  1.69950261  1.15664418  1
  F  F40  1  1.44950261  1.46735563  0.90664418  1
  F  F41  1  0.05049739  -0.46735563  1.40664418  1
  F  F42  1  -0.21735563  2.19950261  1.15664418  1
  F  F43  1  1.71735563  -0.19950261  1.65664418  1
  F  F44  1  0.05049739  1.46735563  0.09335582  1
  F  F45  1  1.44950261  -0.46735563  0.59335582  1
  F  F46  1  1.71735563  2.19950261  0.84335582  1
  F  F47  1  -0.21735563  -0.19950261  0.34335582  1
  F  F48  1  -0.44950261  -0.46735563  0.09335582  1
  F  F49  1  1.94950261  1.46735563  0.59335582  1
  F  F50  1  2.21735563  -0.19950261  0.84335582  1
  F  F51  1  0.28264437  2.19950261  0.34335582  1
  F  F52  1  1.94950261  -0.46735563  0.90664418  1
  F  F53  1  -0.44950261  1.46735563  1.40664418  1
  F  F54  1  0.28264437  -0.19950261  1.15664418  1
  F  F55  1  2.21735563  2.19950261  1.65664418  1
  F  F56  1  0.60669256  0.61907227  0.90926813  1
  F  F57  1  0.89330744  0.38092773  0.40926813  1
  F  F58  1  0.63092773  0.35669256  0.15926813  1
  F  F59  1  0.86907227  0.64330744  0.65926813  1
  F  F60  1  0.89330744  0.61907227  0.09073187  1
  F  F61  1  0.60669256  0.38092773  0.59073187  1
  F  F62  1  0.86907227  0.35669256  0.84073187  1
  F  F63  1  0.63092773  0.64330744  0.34073187  1
  F  F64  1  0.39330744  0.38092773  0.09073187  1
  F  F65  1  0.10669256  0.61907227  0.59073187  1
  F  F66  1  0.36907227  0.64330744  0.84073187  1
  F  F67  1  0.13092773  0.35669256  0.34073187  1
  F  F68  1  0.10669256  0.38092773  0.90926813  1
  F  F69  1  0.39330744  0.61907227  0.40926813  1
  F  F70  1  0.13092773  0.64330744  0.15926813  1
  F  F71  1  0.36907227  0.35669256  0.65926813  1
  F  F72  1  0.10669256  0.11907227  0.40926813  1
  F  F73  1  0.39330744  0.88092773  0.90926813  1
  F  F74  1  0.13092773  0.85669256  0.65926813  1
  F  F75  1  0.36907227  0.14330744  0.15926813  1
  F  F76  1  0.39330744  0.11907227  0.59073187  1
  F  F77  1  0.10669256  0.88092773  0.09073187  1
  F  F78  1  0.36907227  0.85669256  0.34073187  1
  F  F79  1  0.13092773  0.14330744  0.84073187  1
  F  F80  1  0.89330744  0.88092773  0.59073187  1
  F  F81  1  0.60669256  0.11907227  0.09073187  1
  F  F82  1  0.86907227  0.14330744  0.34073187  1
  F  F83  1  0.63092773  0.85669256  0.84073187  1
  F  F84  1  0.60669256  0.88092773  0.40926813  1
  F  F85  1  0.89330744  0.11907227  0.90926813  1
  F  F86  1  0.63092773  0.14330744  0.65926813  1
  F  F87  1  0.86907227  0.85669256  0.15926813  1
  Li  Li88  1  0.00000000  0.00000000  0.00000000  1
  Li  Li89  1  0.50000000  0.00000000  0.50000000  1
  Li  Li90  1  0.25000000  0.75000000  0.25000000  1
  Li  Li91  1  0.25000000  0.25000000  0.75000000  1
  Li  Li92  1  0.50000000  0.00000000  -0.00000000  1
  Li  Li93  1  0.00000000  0.00000000  0.50000000  1
  Li  Li94  1  0.25000000  0.75000000  0.75000000  1
  Li  Li95  1  0.25000000  0.25000000  0.25000000  1
  Li  Li96  1  0.50000000  0.50000000  0.50000000  1
  Li  Li97  1  0.00000000  0.50000000  -0.00000000  1
  Li  Li98  1  0.75000000  0.25000000  0.75000000  1
  Li  Li99  1  0.75000000  0.75000000  0.25000000  1
  Li  Li100  1  0.00000000  0.50000000  0.50000000  1
  Li  Li101  1  0.50000000  0.50000000  -0.00000000  1
  Li  Li102  1  0.75000000  0.25000000  0.25000000  1
  Li  Li103  1  0.75000000  0.75000000  0.75000000  1
