# generated using pymatgen
data_LiY2(As2P)2
_symmetry_space_group_name_H-M   'P 1'
_cell_length_a   4.99793954
_cell_length_b   5.19393432
_cell_length_c   6.74100713
_cell_angle_alpha   94.15847758
_cell_angle_beta   98.39147379
_cell_angle_gamma   105.57754313
_symmetry_Int_Tables_number   1
_chemical_formula_structural   LiY2(As2P)2
_chemical_formula_sum   'Li1 Y2 As4 P2'
_cell_volume   165.60762241
_cell_formula_units_Z   1
loop_
 _symmetry_equiv_pos_site_id
 _symmetry_equiv_pos_as_xyz
  1  'x, y, z'
loop_
 _atom_site_type_symbol
 _atom_site_label
 _atom_site_symmetry_multiplicity
 _atom_site_fract_x
 _atom_site_fract_y
 _atom_site_fract_z
 _atom_site_occupancy
  Y  Y0  1  0.00000000  0.00000000  0.00000000  1
  Y  Y1  1  0.50000000  0.50000000  0.50000000  1
  P  P2  1  0.50000000  0.50000000  0.00000000  1
  P  P3  1  0.50000000  0.00000000  0.50000000  1
  As  As4  1  0.00000000  0.50000000  0.50000000  1
  As  As5  1  0.44611525  0.86792513  0.86942267  1
  As  As6  1  0.15686547  0.23554515  0.39490590  1
  As  As7  1  0.95032391  0.55537234  0.84192055  1
  Li  Li8  1  0.29896280  0.59546459  0.17647581  1
