# generated using pymatgen
data_LiF
_symmetry_space_group_name_H-M   'P 1'
_cell_length_a   11.18172429
_cell_length_b   4.60057551
_cell_length_c   3.22559510
_cell_angle_alpha   90.00000000
_cell_angle_beta   90.00000000
_cell_angle_gamma   90.00000000
_symmetry_Int_Tables_number   1
_chemical_formula_structural   LiF
_chemical_formula_sum   'Li8 F8'
_cell_volume   165.93224661
_cell_formula_units_Z   8
loop_
 _symmetry_equiv_pos_site_id
 _symmetry_equiv_pos_as_xyz
  1  'x, y, z'
loop_
 _atom_site_type_symbol
 _atom_site_label
 _atom_site_symmetry_multiplicity
 _atom_site_fract_x
 _atom_site_fract_y
 _atom_site_fract_z
 _atom_site_occupancy
  F  F0  1  0.13872852  0.41180701  0.50000000  1
  F  F1  1  -0.13872852  -0.41180701  0.50000000  1
  F  F2  1  0.36127148  0.91180701  0.50000000  1
  F  F3  1  0.63872852  0.08819299  0.50000000  1
  F  F4  1  0.57600113  0.38119913  0.00000000  1
  F  F5  1  0.42399887  0.61880087  0.00000000  1
  F  F6  1  0.92399887  0.88119913  0.00000000  1
  F  F7  1  0.07600113  0.11880087  0.00000000  1
  Li  Li8  1  0.33706518  0.26430543  0.00000000  1
  Li  Li9  1  0.66293482  0.73569457  0.00000000  1
  Li  Li10  1  0.16293482  0.76430543  0.00000000  1
  Li  Li11  1  0.83706518  0.23569457  0.00000000  1
  Li  Li12  1  0.00000000  0.50000000  0.50000000  1
  Li  Li13  1  0.50000000  0.00000000  0.50000000  1
  Li  Li14  1  0.00000000  0.50000000  0.00000000  1
  Li  Li15  1  0.50000000  0.00000000  0.00000000  1
