# generated using pymatgen
data_LiF
_symmetry_space_group_name_H-M   'P 1'
_cell_length_a   5.34513180
_cell_length_b   5.53354617
_cell_length_c   6.95951316
_cell_angle_alpha   90.00000000
_cell_angle_beta   90.00000000
_cell_angle_gamma   90.00000000
_symmetry_Int_Tables_number   1
_chemical_formula_structural   LiF
_chemical_formula_sum   'Li14 F14'
_cell_volume   205.84523437
_cell_formula_units_Z   14
loop_
 _symmetry_equiv_pos_site_id
 _symmetry_equiv_pos_as_xyz
  1  'x, y, z'
loop_
 _atom_site_type_symbol
 _atom_site_label
 _atom_site_symmetry_multiplicity
 _atom_site_fract_x
 _atom_site_fract_y
 _atom_site_fract_z
 _atom_site_occupancy
  F  F0  1  0.00000000  0.50000000  -0.00000000  1
  F  F1  1  0.50000000  0.00000000  0.50000000  1
  F  F2  1  0.99678579  0.56944073  0.67718216  1
  F  F3  1  -0.99678579  -0.56944073  0.67718216  1
  F  F4  1  -0.49678579  1.06944073  -0.17718216  1
  F  F5  1  1.49678579  -0.06944073  -0.17718216  1
  F  F6  1  -0.99678579  -0.56944073  -0.67718216  1
  F  F7  1  0.99678579  0.56944073  -0.67718216  1
  F  F8  1  1.49678579  -0.06944073  1.17718216  1
  F  F9  1  -0.49678579  1.06944073  1.17718216  1
  F  F10  1  0.65229868  0.24829775  0.00000000  1
  F  F11  1  0.34770132  0.75170225  0.00000000  1
  F  F12  1  0.84770132  0.74829775  0.50000000  1
  F  F13  1  0.15229868  0.25170225  0.50000000  1
  Li  Li14  1  0.00000000  0.00000000  0.17232630  1
  Li  Li15  1  0.50000000  0.50000000  0.32767370  1
  Li  Li16  1  0.00000000  0.00000000  0.82767370  1
  Li  Li17  1  0.50000000  0.50000000  0.67232630  1
  Li  Li18  1  0.69875468  0.94696793  0.00000000  1
  Li  Li19  1  0.30124532  0.05303207  0.00000000  1
  Li  Li20  1  0.80124532  0.44696793  0.50000000  1
  Li  Li21  1  0.19875468  0.55303207  0.50000000  1
  Li  Li22  1  0.00000000  0.50000000  0.81414444  1
  Li  Li23  1  0.50000000  0.00000000  0.68585556  1
  Li  Li24  1  0.00000000  0.50000000  0.18585556  1
  Li  Li25  1  0.50000000  0.00000000  0.31414444  1
  Li  Li26  1  0.00000000  0.00000000  0.50000000  1
  Li  Li27  1  0.50000000  0.50000000  -0.00000000  1
