# generated using pymatgen
data_LiF
_symmetry_space_group_name_H-M   'P 1'
_cell_length_a   12.63222246
_cell_length_b   12.63222246
_cell_length_c   14.85194007
_cell_angle_alpha   90.00000000
_cell_angle_beta   90.00000000
_cell_angle_gamma   120.00000000
_symmetry_Int_Tables_number   1
_chemical_formula_structural   LiF
_chemical_formula_sum   'Li78 F78'
_cell_volume   2052.45361176
_cell_formula_units_Z   78
loop_
 _symmetry_equiv_pos_site_id
 _symmetry_equiv_pos_as_xyz
  1  'x, y, z'
loop_
 _atom_site_type_symbol
 _atom_site_label
 _atom_site_symmetry_multiplicity
 _atom_site_fract_x
 _atom_site_fract_y
 _atom_site_fract_z
 _atom_site_occupancy
  F  F0  1  0.16618308  0.67527094  0.63095509  1
  F  F1  1  0.32472906  0.49091214  0.63095509  1
  F  F2  1  0.50908786  0.83381692  0.63095509  1
  F  F3  1  0.67527094  0.16618308  0.86904491  1
  F  F4  1  0.49091214  0.32472906  0.86904491  1
  F  F5  1  0.83381692  0.50908786  0.86904491  1
  F  F6  1  0.83381692  0.32472906  0.36904491  1
  F  F7  1  0.67527094  0.50908786  0.36904491  1
  F  F8  1  0.49091214  0.16618308  0.36904491  1
  F  F9  1  0.32472906  0.83381692  0.13095509  1
  F  F10  1  0.50908786  0.67527094  0.13095509  1
  F  F11  1  0.16618308  0.49091214  0.13095509  1
  F  F12  1  0.83284975  0.00860427  0.96428842  1
  F  F13  1  0.99139573  0.82424547  0.96428842  1
  F  F14  1  0.17575453  0.16715025  0.96428842  1
  F  F15  1  0.34193761  0.49951641  0.20237825  1
  F  F16  1  0.15757881  0.65806239  0.20237825  1
  F  F17  1  0.50048359  0.84242119  0.20237825  1
  F  F18  1  0.50048359  0.65806239  0.70237825  1
  F  F19  1  0.34193761  0.84242119  0.70237825  1
  F  F20  1  0.15757881  0.49951641  0.70237825  1
  F  F21  1  0.99139573  0.16715025  0.46428842  1
  F  F22  1  0.17575453  0.00860427  0.46428842  1
  F  F23  1  0.83284975  0.82424547  0.46428842  1
  F  F24  1  0.49951641  0.34193761  0.29762175  1
  F  F25  1  0.65806239  0.15757881  0.29762175  1
  F  F26  1  0.84242119  0.50048359  0.29762175  1
  F  F27  1  0.00860427  0.83284975  0.53571158  1
  F  F28  1  0.82424547  0.99139573  0.53571158  1
  F  F29  1  0.16715025  0.17575453  0.53571158  1
  F  F30  1  0.16715025  0.99139573  0.03571158  1
  F  F31  1  0.00860427  0.17575453  0.03571158  1
  F  F32  1  0.82424547  0.83284975  0.03571158  1
  F  F33  1  0.65806239  0.50048359  0.79762175  1
  F  F34  1  0.84242119  0.34193761  0.79762175  1
  F  F35  1  0.49951641  0.15757881  0.79762175  1
  F  F36  1  0.26301546  0.75405410  0.50666569  1
  F  F37  1  0.24594590  0.50896136  0.50666569  1
  F  F38  1  0.49103864  0.73698454  0.50666569  1
  F  F39  1  0.75405410  0.26301546  0.99333431  1
  F  F40  1  0.50896136  0.24594590  0.99333431  1
  F  F41  1  0.73698454  0.49103864  0.99333431  1
  F  F42  1  0.73698454  0.24594590  0.49333431  1
  F  F43  1  0.75405410  0.49103864  0.49333431  1
  F  F44  1  0.50896136  0.26301546  0.49333431  1
  F  F45  1  0.24594590  0.73698454  0.00666569  1
  F  F46  1  0.49103864  0.75405410  0.00666569  1
  F  F47  1  0.26301546  0.50896136  0.00666569  1
  F  F48  1  0.92968213  0.08738743  0.83999902  1
  F  F49  1  0.91261257  0.84229470  0.83999902  1
  F  F50  1  0.15770530  0.07031787  0.83999902  1
  F  F51  1  0.42072076  0.59634879  0.32666764  1
  F  F52  1  0.17562803  0.57927924  0.32666764  1
  F  F53  1  0.40365121  0.82437197  0.32666764  1
  F  F54  1  0.40365121  0.57927924  0.82666764  1
  F  F55  1  0.42072076  0.82437197  0.82666764  1
  F  F56  1  0.17562803  0.59634879  0.82666764  1
  F  F57  1  0.91261257  0.07031787  0.33999902  1
  F  F58  1  0.15770530  0.08738743  0.33999902  1
  F  F59  1  0.92968213  0.84229470  0.33999902  1
  F  F60  1  0.59634879  0.42072076  0.17333236  1
  F  F61  1  0.57927924  0.17562803  0.17333236  1
  F  F62  1  0.82437197  0.40365121  0.17333236  1
  F  F63  1  0.08738743  0.92968213  0.66000098  1
  F  F64  1  0.84229470  0.91261257  0.66000098  1
  F  F65  1  0.07031787  0.15770530  0.66000098  1
  F  F66  1  0.07031787  0.91261257  0.16000098  1
  F  F67  1  0.08738743  0.15770530  0.16000098  1
  F  F68  1  0.84229470  0.92968213  0.16000098  1
  F  F69  1  0.57927924  0.40365121  0.67333236  1
  F  F70  1  0.82437197  0.42072076  0.67333236  1
  F  F71  1  0.59634879  0.17562803  0.67333236  1
  F  F72  1  0.00000000  0.00000000  0.00000000  1
  F  F73  1  0.00000000  0.00000000  0.50000000  1
  F  F74  1  0.66666667  0.33333333  0.33333333  1
  F  F75  1  0.66666667  0.33333333  0.83333333  1
  F  F76  1  0.33333333  0.66666667  0.66666667  1
  F  F77  1  0.33333333  0.66666667  0.16666667  1
  Li  Li78  1  0.37335952  0.86599480  0.79726038  1
  Li  Li79  1  -0.86599480  -0.49263528  0.79726038  1
  Li  Li80  1  0.49263528  -0.37335952  0.79726038  1
  Li  Li81  1  0.86599480  0.37335952  -0.29726038  1
  Li  Li82  1  -0.49263528  -0.86599480  -0.29726038  1
  Li  Li83  1  -0.37335952  0.49263528  -0.29726038  1
  Li  Li84  1  -0.37335952  -0.86599480  -0.79726038  1
  Li  Li85  1  0.86599480  0.49263528  -0.79726038  1
  Li  Li86  1  -0.49263528  0.37335952  -0.79726038  1
  Li  Li87  1  -0.86599480  -0.37335952  1.29726038  1
  Li  Li88  1  0.49263528  0.86599480  1.29726038  1
  Li  Li89  1  0.37335952  -0.49263528  1.29726038  1
  Li  Li90  1  1.04002618  1.19932813  1.13059371  1
  Li  Li91  1  -0.19932813  -0.15930195  1.13059371  1
  Li  Li92  1  1.15930195  -0.04002618  1.13059371  1
  Li  Li93  1  1.53266147  0.70669285  0.03607296  1
  Li  Li94  1  0.17403138  -0.53266147  0.03607296  1
  Li  Li95  1  0.29330715  0.82596862  0.03607296  1
  Li  Li96  1  0.29330715  -0.53266147  -0.46392704  1
  Li  Li97  1  1.53266147  0.82596862  -0.46392704  1
  Li  Li98  1  0.17403138  0.70669285  -0.46392704  1
  Li  Li99  1  -0.19932813  -0.04002618  1.63059371  1
  Li  Li100  1  1.15930195  1.19932813  1.63059371  1
  Li  Li101  1  1.04002618  -0.15930195  1.63059371  1
  Li  Li102  1  0.70669285  1.53266147  1.46392704  1
  Li  Li103  1  -0.53266147  0.17403138  1.46392704  1
  Li  Li104  1  0.82596862  0.29330715  1.46392704  1
  Li  Li105  1  1.19932813  1.04002618  0.36940629  1
  Li  Li106  1  -0.15930195  -0.19932813  0.36940629  1
  Li  Li107  1  -0.04002618  1.15930195  0.36940629  1
  Li  Li108  1  -0.04002618  -0.19932813  -0.13059371  1
  Li  Li109  1  1.19932813  1.15930195  -0.13059371  1
  Li  Li110  1  -0.15930195  1.04002618  -0.13059371  1
  Li  Li111  1  -0.53266147  0.29330715  1.96392704  1
  Li  Li112  1  0.82596862  1.53266147  1.96392704  1
  Li  Li113  1  0.70669285  0.17403138  1.96392704  1
  Li  Li114  1  0.53992979  0.00000000  0.25000000  1
  Li  Li115  1  0.00000000  0.53992979  0.25000000  1
  Li  Li116  1  0.46007021  0.46007021  0.25000000  1
  Li  Li117  1  0.46007021  0.00000000  0.75000000  1
  Li  Li118  1  0.00000000  0.46007021  0.75000000  1
  Li  Li119  1  0.53992979  0.53992979  0.75000000  1
  Li  Li120  1  0.20659646  0.33333333  0.58333333  1
  Li  Li121  1  0.66666667  0.87326313  0.58333333  1
  Li  Li122  1  0.12673687  0.79340354  0.58333333  1
  Li  Li123  1  0.12673687  0.33333333  0.08333333  1
  Li  Li124  1  0.66666667  0.79340354  0.08333333  1
  Li  Li125  1  0.20659646  0.87326313  0.08333333  1
  Li  Li126  1  0.87326313  0.66666667  0.91666667  1
  Li  Li127  1  0.33333333  0.20659646  0.91666667  1
  Li  Li128  1  0.79340354  0.12673687  0.91666667  1
  Li  Li129  1  0.79340354  0.66666667  0.41666667  1
  Li  Li130  1  0.33333333  0.12673687  0.41666667  1
  Li  Li131  1  0.87326313  0.20659646  0.41666667  1
  Li  Li132  1  0.50000000  0.00000000  -0.00000000  1
  Li  Li133  1  0.00000000  0.50000000  0.00000000  1
  Li  Li134  1  0.50000000  0.50000000  -0.00000000  1
  Li  Li135  1  0.00000000  0.50000000  0.50000000  1
  Li  Li136  1  0.50000000  0.00000000  0.50000000  1
  Li  Li137  1  0.50000000  0.50000000  0.50000000  1
  Li  Li138  1  0.16666667  0.33333333  0.33333333  1
  Li  Li139  1  0.66666667  0.83333333  0.33333333  1
  Li  Li140  1  0.16666667  0.83333333  0.33333333  1
  Li  Li141  1  0.66666667  0.83333333  0.83333333  1
  Li  Li142  1  0.16666667  0.33333333  0.83333333  1
  Li  Li143  1  0.16666667  0.83333333  0.83333333  1
  Li  Li144  1  0.83333333  0.66666667  0.66666667  1
  Li  Li145  1  0.33333333  0.16666667  0.66666667  1
  Li  Li146  1  0.83333333  0.16666667  0.66666667  1
  Li  Li147  1  0.33333333  0.16666667  0.16666667  1
  Li  Li148  1  0.83333333  0.66666667  0.16666667  1
  Li  Li149  1  0.83333333  0.16666667  0.16666667  1
  Li  Li150  1  0.00000000  0.00000000  0.25000000  1
  Li  Li151  1  0.00000000  0.00000000  0.75000000  1
  Li  Li152  1  0.66666667  0.33333333  0.58333333  1
  Li  Li153  1  0.66666667  0.33333333  0.08333333  1
  Li  Li154  1  0.33333333  0.66666667  0.91666667  1
  Li  Li155  1  0.33333333  0.66666667  0.41666667  1
