# generated using pymatgen
data_LiF
_symmetry_space_group_name_H-M   'P 1'
_cell_length_a   5.47721813
_cell_length_b   7.25548392
_cell_length_c   9.05742973
_cell_angle_alpha   90.00000000
_cell_angle_beta   90.00000000
_cell_angle_gamma   90.00000000
_symmetry_Int_Tables_number   1
_chemical_formula_structural   LiF
_chemical_formula_sum   'Li24 F24'
_cell_volume   359.94106285
_cell_formula_units_Z   24
loop_
 _symmetry_equiv_pos_site_id
 _symmetry_equiv_pos_as_xyz
  1  'x, y, z'
loop_
 _atom_site_type_symbol
 _atom_site_label
 _atom_site_symmetry_multiplicity
 _atom_site_fract_x
 _atom_site_fract_y
 _atom_site_fract_z
 _atom_site_occupancy
  F  F0  1  0.37721240  0.38093379  0.24846532  1
  F  F1  1  0.62278760  0.61906621  0.24846532  1
  F  F2  1  0.12278760  0.88093379  0.25153468  1
  F  F3  1  0.87721240  0.11906621  0.25153468  1
  F  F4  1  0.62278760  0.61906621  0.75153468  1
  F  F5  1  0.37721240  0.38093379  0.75153468  1
  F  F6  1  0.87721240  0.11906621  0.74846532  1
  F  F7  1  0.12278760  0.88093379  0.74846532  1
  F  F8  1  0.04124063  0.56679077  0.96273889  1
  F  F9  1  0.95875937  0.43320923  0.96273889  1
  F  F10  1  0.45875937  0.06679077  0.53726111  1
  F  F11  1  0.54124063  0.93320923  0.53726111  1
  F  F12  1  0.95875937  0.43320923  0.03726111  1
  F  F13  1  0.04124063  0.56679077  0.03726111  1
  F  F14  1  0.54124063  0.93320923  0.46273889  1
  F  F15  1  0.45875937  0.06679077  0.46273889  1
  F  F16  1  0.00000000  0.00000000  0.75111597  1
  F  F17  1  0.50000000  0.50000000  0.74888403  1
  F  F18  1  0.00000000  0.00000000  0.24888403  1
  F  F19  1  0.50000000  0.50000000  0.25111597  1
  F  F20  1  0.93366822  0.88656983  -0.00000000  1
  F  F21  1  0.06633178  0.11343017  0.00000000  1
  F  F22  1  0.56633178  0.38656983  0.50000000  1
  F  F23  1  0.43366822  0.61343017  0.50000000  1
  Li  Li24  1  0.69211147  0.79813154  0.19807309  1
  Li  Li25  1  -0.69211147  -0.79813154  0.19807309  1
  Li  Li26  1  -0.19211147  1.29813154  0.30192691  1
  Li  Li27  1  1.19211147  -0.29813154  0.30192691  1
  Li  Li28  1  -0.69211147  -0.79813154  -0.19807309  1
  Li  Li29  1  0.69211147  0.79813154  -0.19807309  1
  Li  Li30  1  1.19211147  -0.29813154  0.69807309  1
  Li  Li31  1  -0.19211147  1.29813154  0.69807309  1
  Li  Li32  1  0.00000000  0.00000000  0.90237572  1
  Li  Li33  1  0.50000000  0.50000000  0.59762428  1
  Li  Li34  1  0.00000000  0.00000000  0.09762428  1
  Li  Li35  1  0.50000000  0.50000000  0.40237572  1
  Li  Li36  1  0.73639554  0.40187946  0.10883353  1
  Li  Li37  1  0.26360446  0.59812054  0.10883353  1
  Li  Li38  1  0.76360446  0.90187946  0.39116647  1
  Li  Li39  1  0.23639554  0.09812054  0.39116647  1
  Li  Li40  1  0.26360446  0.59812054  0.89116647  1
  Li  Li41  1  0.73639554  0.40187946  0.89116647  1
  Li  Li42  1  0.23639554  0.09812054  0.60883353  1
  Li  Li43  1  0.76360446  0.90187946  0.60883353  1
  Li  Li44  1  0.00000000  0.50000000  0.69460562  1
  Li  Li45  1  0.50000000  -0.00000000  0.80539438  1
  Li  Li46  1  0.00000000  0.50000000  0.30539438  1
  Li  Li47  1  0.50000000  -0.00000000  0.19460562  1
