# generated using pymatgen
data_LiF
_symmetry_space_group_name_H-M   'P 1'
_cell_length_a   10.38023169
_cell_length_b   8.73440954
_cell_length_c   8.04864092
_cell_angle_alpha   90.00000000
_cell_angle_beta   90.00000000
_cell_angle_gamma   90.00000000
_symmetry_Int_Tables_number   1
_chemical_formula_structural   LiF
_chemical_formula_sum   'Li24 F24'
_cell_volume   729.73159565
_cell_formula_units_Z   24
loop_
 _symmetry_equiv_pos_site_id
 _symmetry_equiv_pos_as_xyz
  1  'x, y, z'
loop_
 _atom_site_type_symbol
 _atom_site_label
 _atom_site_symmetry_multiplicity
 _atom_site_fract_x
 _atom_site_fract_y
 _atom_site_fract_z
 _atom_site_occupancy
  F  F0  1  0.04782735  0.62530945  0.27855865  1
  F  F1  1  0.45217265  0.37469055  0.77855865  1
  F  F2  1  0.95217265  0.12530945  0.72144135  1
  F  F3  1  0.54782735  0.87469055  0.22144135  1
  F  F4  1  0.95217265  0.37469055  0.72144135  1
  F  F5  1  0.54782735  0.62530945  0.22144135  1
  F  F6  1  0.04782735  0.87469055  0.27855865  1
  F  F7  1  0.45217265  0.12530945  0.77855865  1
  F  F8  1  0.25193359  0.99910618  0.26432361  1
  F  F9  1  0.24806641  0.00089382  0.76432361  1
  F  F10  1  0.74806641  0.49910618  0.73567639  1
  F  F11  1  0.75193359  0.50089382  0.23567639  1
  F  F12  1  0.74806641  0.00089382  0.73567639  1
  F  F13  1  0.75193359  0.99910618  0.23567639  1
  F  F14  1  0.25193359  0.50089382  0.26432361  1
  F  F15  1  0.24806641  0.49910618  0.76432361  1
  F  F16  1  0.80573976  0.99339529  0.25960638  1
  F  F17  1  0.69426024  0.00660471  0.75960638  1
  F  F18  1  0.19426024  0.49339529  0.74039362  1
  F  F19  1  0.30573976  0.50660471  0.24039362  1
  F  F20  1  0.19426024  0.00660471  0.74039362  1
  F  F21  1  0.30573976  0.99339529  0.24039362  1
  F  F22  1  0.80573976  0.50660471  0.25960638  1
  F  F23  1  0.69426024  0.49339529  0.75960638  1
  Li  Li24  1  0.09296196  0.25000000  0.58939755  1
  Li  Li25  1  0.40703804  0.75000000  0.08939755  1
  Li  Li26  1  0.90703804  0.75000000  0.41060245  1
  Li  Li27  1  0.59296196  0.25000000  0.91060245  1
  Li  Li28  1  0.20178199  0.25000000  0.15167728  1
  Li  Li29  1  0.29821801  0.75000000  0.65167728  1
  Li  Li30  1  0.79821801  0.75000000  0.84832272  1
  Li  Li31  1  0.70178199  0.25000000  0.34832272  1
  Li  Li32  1  0.91693733  0.25000000  0.22377802  1
  Li  Li33  1  0.58306267  0.75000000  0.72377802  1
  Li  Li34  1  0.08306267  0.75000000  0.77622198  1
  Li  Li35  1  0.41693733  0.25000000  0.27622198  1
  Li  Li36  1  0.00000000  0.00000000  0.00000000  1
  Li  Li37  1  0.50000000  0.00000000  0.50000000  1
  Li  Li38  1  0.00000000  0.50000000  0.00000000  1
  Li  Li39  1  0.50000000  0.50000000  0.50000000  1
  Li  Li40  1  0.73990349  0.55321120  0.84659102  1
  Li  Li41  1  -0.23990349  -0.55321120  1.34659102  1
  Li  Li42  1  -0.73990349  1.05321120  -0.84659102  1
  Li  Li43  1  1.23990349  -0.05321120  -0.34659102  1
  Li  Li44  1  -0.73990349  -0.55321120  -0.84659102  1
  Li  Li45  1  1.23990349  0.55321120  -0.34659102  1
  Li  Li46  1  0.73990349  -0.05321120  0.84659102  1
  Li  Li47  1  -0.23990349  1.05321120  1.34659102  1
