# generated using pymatgen
data_Li4TeF2
_symmetry_space_group_name_H-M   'P 1'
_cell_length_a   13.50921419
_cell_length_b   13.50921419
_cell_length_c   13.50921419
_cell_angle_alpha   90.00000000
_cell_angle_beta   90.00000000
_cell_angle_gamma   90.00000000
_symmetry_Int_Tables_number   1
_chemical_formula_structural   Li4TeF2
_chemical_formula_sum   'Li96 Te24 F48'
_cell_volume   2465.41629790
_cell_formula_units_Z   24
loop_
 _symmetry_equiv_pos_site_id
 _symmetry_equiv_pos_as_xyz
  1  'x, y, z'
loop_
 _atom_site_type_symbol
 _atom_site_label
 _atom_site_symmetry_multiplicity
 _atom_site_fract_x
 _atom_site_fract_y
 _atom_site_fract_z
 _atom_site_occupancy
  F  F0  1  0.93448567  0.57224998  0.30918402  1
  F  F1  1  -0.43448567  -0.57224998  0.80918402  1
  F  F2  1  -0.93448567  1.07224998  0.19081598  1
  F  F3  1  1.43448567  -0.07224998  -0.30918402  1
  F  F4  1  0.30918402  0.93448567  0.57224998  1
  F  F5  1  0.80918402  -0.43448567  -0.57224998  1
  F  F6  1  0.19081598  -0.93448567  1.07224998  1
  F  F7  1  -0.30918402  1.43448567  -0.07224998  1
  F  F8  1  0.57224998  0.30918402  0.93448567  1
  F  F9  1  -0.57224998  0.80918402  -0.43448567  1
  F  F10  1  1.07224998  0.19081598  -0.93448567  1
  F  F11  1  -0.07224998  -0.30918402  1.43448567  1
  F  F12  1  1.32224998  1.18448567  -0.05918402  1
  F  F13  1  0.17775002  -0.18448567  0.44081598  1
  F  F14  1  0.82224998  -0.68448567  1.05918402  1
  F  F15  1  -0.32224998  1.68448567  0.55918402  1
  F  F16  1  1.68448567  0.55918402  -0.32224998  1
  F  F17  1  -0.68448567  1.05918402  0.82224998  1
  F  F18  1  -0.18448567  0.44081598  0.17775002  1
  F  F19  1  1.18448567  -0.05918402  1.32224998  1
  F  F20  1  1.05918402  0.82224998  -0.68448567  1
  F  F21  1  0.55918402  -0.32224998  1.68448567  1
  F  F22  1  -0.05918402  1.32224998  1.18448567  1
  F  F23  1  0.44081598  0.17775002  -0.18448567  1
  F  F24  1  1.43448567  1.07224998  0.80918402  1
  F  F25  1  0.06551433  -0.07224998  1.30918402  1
  F  F26  1  -0.43448567  1.57224998  0.69081598  1
  F  F27  1  1.93448567  0.42775002  0.19081598  1
  F  F28  1  0.80918402  1.43448567  1.07224998  1
  F  F29  1  1.30918402  0.06551433  -0.07224998  1
  F  F30  1  0.69081598  -0.43448567  1.57224998  1
  F  F31  1  0.19081598  1.93448567  0.42775002  1
  F  F32  1  1.07224998  0.80918402  1.43448567  1
  F  F33  1  -0.07224998  1.30918402  0.06551433  1
  F  F34  1  1.57224998  0.69081598  -0.43448567  1
  F  F35  1  0.42775002  0.19081598  1.93448567  1
  F  F36  1  1.82224998  1.68448567  0.44081598  1
  F  F37  1  0.67775002  0.31551433  0.94081598  1
  F  F38  1  1.32224998  -0.18448567  1.55918402  1
  F  F39  1  0.17775002  2.18448567  1.05918402  1
  F  F40  1  2.18448567  1.05918402  0.17775002  1
  F  F41  1  -0.18448567  1.55918402  1.32224998  1
  F  F42  1  0.31551433  0.94081598  0.67775002  1
  F  F43  1  1.68448567  0.44081598  1.82224998  1
  F  F44  1  1.55918402  1.32224998  -0.18448567  1
  F  F45  1  1.05918402  0.17775002  2.18448567  1
  F  F46  1  0.44081598  1.82224998  1.68448567  1
  F  F47  1  0.94081598  0.67775002  0.31551433  1
  Li  Li48  1  0.40214469  0.11189412  0.55178353  1
  Li  Li49  1  0.09785531  0.88810588  0.05178353  1
  Li  Li50  1  0.59785531  0.61189412  0.94821647  1
  Li  Li51  1  0.90214469  0.38810588  0.44821647  1
  Li  Li52  1  0.55178353  0.40214469  0.11189412  1
  Li  Li53  1  0.05178353  0.09785531  0.88810588  1
  Li  Li54  1  0.94821647  0.59785531  0.61189412  1
  Li  Li55  1  0.44821647  0.90214469  0.38810588  1
  Li  Li56  1  0.11189412  0.55178353  0.40214469  1
  Li  Li57  1  0.88810588  0.05178353  0.09785531  1
  Li  Li58  1  0.61189412  0.94821647  0.59785531  1
  Li  Li59  1  0.38810588  0.44821647  0.90214469  1
  Li  Li60  1  0.86189412  0.65214469  0.69821647  1
  Li  Li61  1  0.63810588  0.34785531  0.19821647  1
  Li  Li62  1  0.36189412  0.84785531  0.30178353  1
  Li  Li63  1  0.13810588  0.15214469  0.80178353  1
  Li  Li64  1  0.15214469  0.80178353  0.13810588  1
  Li  Li65  1  0.84785531  0.30178353  0.36189412  1
  Li  Li66  1  0.34785531  0.19821647  0.63810588  1
  Li  Li67  1  0.65214469  0.69821647  0.86189412  1
  Li  Li68  1  0.30178353  0.36189412  0.84785531  1
  Li  Li69  1  0.80178353  0.13810588  0.15214469  1
  Li  Li70  1  0.69821647  0.86189412  0.65214469  1
  Li  Li71  1  0.19821647  0.63810588  0.34785531  1
  Li  Li72  1  0.90214469  0.61189412  0.05178353  1
  Li  Li73  1  0.59785531  0.38810588  0.55178353  1
  Li  Li74  1  0.09785531  0.11189412  0.44821647  1
  Li  Li75  1  0.40214469  0.88810588  0.94821647  1
  Li  Li76  1  0.05178353  0.90214469  0.61189412  1
  Li  Li77  1  0.55178353  0.59785531  0.38810588  1
  Li  Li78  1  0.44821647  0.09785531  0.11189412  1
  Li  Li79  1  0.94821647  0.40214469  0.88810588  1
  Li  Li80  1  0.61189412  0.05178353  0.90214469  1
  Li  Li81  1  0.38810588  0.55178353  0.59785531  1
  Li  Li82  1  0.11189412  0.44821647  0.09785531  1
  Li  Li83  1  0.88810588  0.94821647  0.40214469  1
  Li  Li84  1  0.36189412  0.15214469  0.19821647  1
  Li  Li85  1  0.13810588  0.84785531  0.69821647  1
  Li  Li86  1  0.86189412  0.34785531  0.80178353  1
  Li  Li87  1  0.63810588  0.65214469  0.30178353  1
  Li  Li88  1  0.65214469  0.30178353  0.63810588  1
  Li  Li89  1  0.34785531  0.80178353  0.86189412  1
  Li  Li90  1  0.84785531  0.69821647  0.13810588  1
  Li  Li91  1  0.15214469  0.19821647  0.36189412  1
  Li  Li92  1  0.80178353  0.86189412  0.34785531  1
  Li  Li93  1  0.30178353  0.63810588  0.65214469  1
  Li  Li94  1  0.19821647  0.36189412  0.15214469  1
  Li  Li95  1  0.69821647  0.13810588  0.84785531  1
  Li  Li96  1  0.50485597  -0.00000000  0.25000000  1
  Li  Li97  1  0.99514403  -0.00000000  0.75000000  1
  Li  Li98  1  0.25000000  0.50485597  -0.00000000  1
  Li  Li99  1  0.75000000  0.99514403  -0.00000000  1
  Li  Li100  1  0.00000000  0.25000000  0.50485597  1
  Li  Li101  1  0.00000000  0.75000000  0.99514403  1
  Li  Li102  1  0.75000000  0.75485597  -0.00000000  1
  Li  Li103  1  0.75000000  0.24514403  0.50000000  1
  Li  Li104  1  0.25485597  0.50000000  0.25000000  1
  Li  Li105  1  0.74514403  0.00000000  0.25000000  1
  Li  Li106  1  0.00000000  0.25000000  0.74514403  1
  Li  Li107  1  0.50000000  0.25000000  0.25485597  1
  Li  Li108  1  0.00485597  0.50000000  0.75000000  1
  Li  Li109  1  0.49514403  0.50000000  0.25000000  1
  Li  Li110  1  0.75000000  0.00485597  0.50000000  1
  Li  Li111  1  0.25000000  0.49514403  0.50000000  1
  Li  Li112  1  0.50000000  0.75000000  0.00485597  1
  Li  Li113  1  0.50000000  0.25000000  0.49514403  1
  Li  Li114  1  0.25000000  0.25485597  0.50000000  1
  Li  Li115  1  0.25000000  0.74514403  0.00000000  1
  Li  Li116  1  0.75485597  -0.00000000  0.75000000  1
  Li  Li117  1  0.24514403  0.50000000  0.75000000  1
  Li  Li118  1  0.50000000  0.75000000  0.24514403  1
  Li  Li119  1  0.00000000  0.75000000  0.75485597  1
  Li  Li120  1  0.12500000  0.24470421  0.49470421  1
  Li  Li121  1  0.37500000  0.75529579  0.99470421  1
  Li  Li122  1  0.87500000  0.74470421  0.00529579  1
  Li  Li123  1  0.62500000  0.25529579  0.50529579  1
  Li  Li124  1  0.49470421  0.12500000  0.24470421  1
  Li  Li125  1  0.99470421  0.37500000  0.75529579  1
  Li  Li126  1  0.00529579  0.87500000  0.74470421  1
  Li  Li127  1  0.50529579  0.62500000  0.25529579  1
  Li  Li128  1  0.24470421  0.49470421  0.12500000  1
  Li  Li129  1  0.75529579  0.99470421  0.37500000  1
  Li  Li130  1  0.74470421  0.00529579  0.87500000  1
  Li  Li131  1  0.25529579  0.50529579  0.62500000  1
  Li  Li132  1  0.62500000  0.74470421  0.99470421  1
  Li  Li133  1  0.87500000  0.25529579  0.49470421  1
  Li  Li134  1  0.37500000  0.24470421  0.50529579  1
  Li  Li135  1  0.12500000  0.75529579  0.00529579  1
  Li  Li136  1  0.99470421  0.62500000  0.74470421  1
  Li  Li137  1  0.49470421  0.87500000  0.25529579  1
  Li  Li138  1  0.50529579  0.37500000  0.24470421  1
  Li  Li139  1  0.00529579  0.12500000  0.75529579  1
  Li  Li140  1  0.74470421  0.99470421  0.62500000  1
  Li  Li141  1  0.25529579  0.49470421  0.87500000  1
  Li  Li142  1  0.24470421  0.50529579  0.37500000  1
  Li  Li143  1  0.75529579  0.00529579  0.12500000  1
  Te  Te144  1  0.12500000  0.28013586  0.96986414  1
  Te  Te145  1  0.37500000  0.71986414  0.46986414  1
  Te  Te146  1  0.87500000  0.78013586  0.53013586  1
  Te  Te147  1  0.62500000  0.21986414  0.03013586  1
  Te  Te148  1  0.96986414  0.12500000  0.28013586  1
  Te  Te149  1  0.46986414  0.37500000  0.71986414  1
  Te  Te150  1  0.53013586  0.87500000  0.78013586  1
  Te  Te151  1  0.03013586  0.62500000  0.21986414  1
  Te  Te152  1  0.28013586  0.96986414  0.12500000  1
  Te  Te153  1  0.71986414  0.46986414  0.37500000  1
  Te  Te154  1  0.78013586  0.53013586  0.87500000  1
  Te  Te155  1  0.21986414  0.03013586  0.62500000  1
  Te  Te156  1  0.62500000  0.78013586  0.46986414  1
  Te  Te157  1  0.87500000  0.21986414  0.96986414  1
  Te  Te158  1  0.37500000  0.28013586  0.03013586  1
  Te  Te159  1  0.12500000  0.71986414  0.53013586  1
  Te  Te160  1  0.46986414  0.62500000  0.78013586  1
  Te  Te161  1  0.96986414  0.87500000  0.21986414  1
  Te  Te162  1  0.03013586  0.37500000  0.28013586  1
  Te  Te163  1  0.53013586  0.12500000  0.71986414  1
  Te  Te164  1  0.78013586  0.46986414  0.62500000  1
  Te  Te165  1  0.21986414  0.96986414  0.87500000  1
  Te  Te166  1  0.28013586  0.03013586  0.37500000  1
  Te  Te167  1  0.71986414  0.53013586  0.12500000  1
