# generated using pymatgen
data_LiTe2MoP
_symmetry_space_group_name_H-M   'P 1'
_cell_length_a   5.08233058
_cell_length_b   5.27509990
_cell_length_c   6.97074570
_cell_angle_alpha   94.39926825
_cell_angle_beta   99.83306899
_cell_angle_gamma   107.87571209
_symmetry_Int_Tables_number   1
_chemical_formula_structural   LiTe2MoP
_chemical_formula_sum   'Li2 Te4 Mo2 P2'
_cell_volume   173.58007834
_cell_formula_units_Z   2
loop_
 _symmetry_equiv_pos_site_id
 _symmetry_equiv_pos_as_xyz
  1  'x, y, z'
loop_
 _atom_site_type_symbol
 _atom_site_label
 _atom_site_symmetry_multiplicity
 _atom_site_fract_x
 _atom_site_fract_y
 _atom_site_fract_z
 _atom_site_occupancy
  Te  Te0  1  0.00000000  0.00000000  0.00000000  1
  Te  Te1  1  0.50000000  0.50000000  0.50000000  1
  Te  Te2  1  0.25000000  0.25000000  0.25000000  1
  Te  Te3  1  0.75000000  0.25000000  0.00000000  1
  P  P4  1  0.25000000  0.75000000  0.50000000  1
  P  P5  1  0.92534176  0.66442522  0.95744033  1
  Mo  Mo6  1  0.10015310  0.43191089  0.97766480  1
  Mo  Mo7  1  0.21342776  0.60473576  0.48539260  1
  Li  Li8  1  0.74363977  0.90146075  0.36317490  1
  Li  Li9  1  0.78062637  0.33666170  0.36970702  1
