# generated using pymatgen
data_LiF
_symmetry_space_group_name_H-M   'P 1'
_cell_length_a   8.57964737
_cell_length_b   9.93196368
_cell_length_c   6.60052390
_cell_angle_alpha   90.00000000
_cell_angle_beta   90.00000000
_cell_angle_gamma   90.00000000
_symmetry_Int_Tables_number   1
_chemical_formula_structural   LiF
_chemical_formula_sum   'Li24 F24'
_cell_volume   562.44876678
_cell_formula_units_Z   24
loop_
 _symmetry_equiv_pos_site_id
 _symmetry_equiv_pos_as_xyz
  1  'x, y, z'
loop_
 _atom_site_type_symbol
 _atom_site_label
 _atom_site_symmetry_multiplicity
 _atom_site_fract_x
 _atom_site_fract_y
 _atom_site_fract_z
 _atom_site_occupancy
  F  F0  1  0.53567910  0.25000000  0.96372940  1
  F  F1  1  0.96432090  0.75000000  0.46372940  1
  F  F2  1  0.46432090  0.75000000  0.03627060  1
  F  F3  1  0.03567910  0.25000000  0.53627060  1
  F  F4  1  0.11369790  0.25000000  0.11337845  1
  F  F5  1  0.38630210  0.75000000  0.61337845  1
  F  F6  1  0.88630210  0.75000000  0.88662155  1
  F  F7  1  0.61369790  0.25000000  0.38662155  1
  F  F8  1  0.01999911  0.62450198  0.56138750  1
  F  F9  1  0.48000089  0.37549802  0.06138750  1
  F  F10  1  0.98000089  0.12450198  0.43861250  1
  F  F11  1  0.51999911  0.87549802  0.93861250  1
  F  F12  1  0.98000089  0.37549802  0.43861250  1
  F  F13  1  0.51999911  0.62450198  0.93861250  1
  F  F14  1  0.01999911  0.87549802  0.56138750  1
  F  F15  1  0.48000089  0.12450198  0.06138750  1
  F  F16  1  0.33039290  0.17049275  0.73329227  1
  F  F17  1  0.16960710  0.82950725  0.23329227  1
  F  F18  1  0.66960710  0.67049275  0.26670773  1
  F  F19  1  0.83039290  0.32950725  0.76670773  1
  F  F20  1  0.66960710  0.82950725  0.26670773  1
  F  F21  1  0.83039290  0.17049275  0.76670773  1
  F  F22  1  0.33039290  0.32950725  0.73329227  1
  F  F23  1  0.16960710  0.67049275  0.23329227  1
  Li  Li24  1  0.12714082  0.25000000  0.61698730  1
  Li  Li25  1  0.37285918  0.75000000  0.11698730  1
  Li  Li26  1  0.87285918  0.75000000  0.38301270  1
  Li  Li27  1  0.62714082  0.25000000  0.88301270  1
  Li  Li28  1  0.00000000  0.00000000  0.00000000  1
  Li  Li29  1  0.50000000  0.00000000  0.50000000  1
  Li  Li30  1  0.00000000  0.50000000  0.00000000  1
  Li  Li31  1  0.50000000  0.50000000  0.50000000  1
  Li  Li32  1  0.00000000  0.00000000  0.50000000  1
  Li  Li33  1  0.50000000  0.00000000  0.00000000  1
  Li  Li34  1  0.00000000  0.50000000  0.50000000  1
  Li  Li35  1  0.50000000  0.50000000  0.00000000  1
  Li  Li36  1  0.84919078  0.31622872  0.35161928  1
  Li  Li37  1  -0.34919078  -0.31622872  0.85161928  1
  Li  Li38  1  -0.84919078  0.81622872  -0.35161928  1
  Li  Li39  1  1.34919078  0.18377128  0.14838072  1
  Li  Li40  1  -0.84919078  -0.31622872  -0.35161928  1
  Li  Li41  1  1.34919078  0.31622872  0.14838072  1
  Li  Li42  1  0.84919078  0.18377128  0.35161928  1
  Li  Li43  1  -0.34919078  0.81622872  0.85161928  1
  Li  Li44  1  0.93964442  0.25000000  0.23029280  1
  Li  Li45  1  0.56035558  0.75000000  0.73029280  1
  Li  Li46  1  0.06035558  0.75000000  0.76970720  1
  Li  Li47  1  0.43964442  0.25000000  0.26970720  1
