# generated using pymatgen
data_LiF
_symmetry_space_group_name_H-M   'P 1'
_cell_length_a   11.36122228
_cell_length_b   12.26712673
_cell_length_c   4.74535802
_cell_angle_alpha   90.00000000
_cell_angle_beta   90.00000000
_cell_angle_gamma   90.00000000
_symmetry_Int_Tables_number   1
_chemical_formula_structural   LiF
_chemical_formula_sum   'Li18 F18'
_cell_volume   661.35842902
_cell_formula_units_Z   18
loop_
 _symmetry_equiv_pos_site_id
 _symmetry_equiv_pos_as_xyz
  1  'x, y, z'
loop_
 _atom_site_type_symbol
 _atom_site_label
 _atom_site_symmetry_multiplicity
 _atom_site_fract_x
 _atom_site_fract_y
 _atom_site_fract_z
 _atom_site_occupancy
  F  F0  1  0.00000000  0.00000000  0.00000000  1
  F  F1  1  0.50000000  0.50000000  -0.00000000  1
  F  F2  1  0.11439719  0.52656531  0.50000000  1
  F  F3  1  0.88560281  0.47343469  0.50000000  1
  F  F4  1  0.38560281  0.02656531  0.50000000  1
  F  F5  1  0.61439719  0.97343469  0.50000000  1
  F  F6  1  0.06546162  0.24112423  0.39978227  1
  F  F7  1  -0.06546162  -0.24112423  0.39978227  1
  F  F8  1  0.43453838  0.74112423  -0.39978227  1
  F  F9  1  0.56546162  0.25887577  -0.39978227  1
  F  F10  1  -0.06546162  -0.24112423  -0.39978227  1
  F  F11  1  0.06546162  0.24112423  -0.39978227  1
  F  F12  1  0.56546162  0.25887577  0.39978227  1
  F  F13  1  0.43453838  0.74112423  0.39978227  1
  F  F14  1  0.31626845  0.86609916  0.00000000  1
  F  F15  1  0.68373155  0.13390084  -0.00000000  1
  F  F16  1  0.18373155  0.36609916  -0.00000000  1
  F  F17  1  0.81626845  0.63390084  -0.00000000  1
  Li  Li18  1  0.28971095  0.03379594  0.34148067  1
  Li  Li19  1  0.71028905  0.96620406  0.34148067  1
  Li  Li20  1  0.21028905  0.53379594  0.65851933  1
  Li  Li21  1  0.78971095  0.46620406  0.65851933  1
  Li  Li22  1  0.71028905  0.96620406  0.65851933  1
  Li  Li23  1  0.28971095  0.03379594  0.65851933  1
  Li  Li24  1  0.78971095  0.46620406  0.34148067  1
  Li  Li25  1  0.21028905  0.53379594  0.34148067  1
  Li  Li26  1  0.97760898  0.24546886  0.66107990  1
  Li  Li27  1  0.02239102  0.75453114  0.66107990  1
  Li  Li28  1  0.52239102  0.74546886  0.33892010  1
  Li  Li29  1  0.47760898  0.25453114  0.33892010  1
  Li  Li30  1  0.02239102  0.75453114  0.33892010  1
  Li  Li31  1  0.97760898  0.24546886  0.33892010  1
  Li  Li32  1  0.47760898  0.25453114  0.66107990  1
  Li  Li33  1  0.52239102  0.74546886  0.66107990  1
  Li  Li34  1  0.00000000  0.50000000  -0.00000000  1
  Li  Li35  1  0.50000000  0.00000000  0.00000000  1
