# generated using pymatgen
data_LiF
_symmetry_space_group_name_H-M   'P 1'
_cell_length_a   7.17710044
_cell_length_b   7.17710044
_cell_length_c   26.33100500
_cell_angle_alpha   90.00000000
_cell_angle_beta   90.00000000
_cell_angle_gamma   120.00000000
_symmetry_Int_Tables_number   1
_chemical_formula_structural   LiF
_chemical_formula_sum   'Li48 F48'
_cell_volume   1174.61654738
_cell_formula_units_Z   48
loop_
 _symmetry_equiv_pos_site_id
 _symmetry_equiv_pos_as_xyz
  1  'x, y, z'
loop_
 _atom_site_type_symbol
 _atom_site_label
 _atom_site_symmetry_multiplicity
 _atom_site_fract_x
 _atom_site_fract_y
 _atom_site_fract_z
 _atom_site_occupancy
  F  F0  1  0.76448407  0.01468048  0.19273378  1
  F  F1  1  0.98531952  0.74980359  0.19273378  1
  F  F2  1  0.25019641  0.23551593  0.19273378  1
  F  F3  1  0.01468048  0.76448407  0.30726622  1
  F  F4  1  0.74980359  0.98531952  0.30726622  1
  F  F5  1  0.23551593  0.25019641  0.30726622  1
  F  F6  1  0.23551593  0.98531952  0.80726622  1
  F  F7  1  0.01468048  0.25019641  0.80726622  1
  F  F8  1  0.74980359  0.76448407  0.80726622  1
  F  F9  1  0.98531952  0.23551593  0.69273378  1
  F  F10  1  0.25019641  0.01468048  0.69273378  1
  F  F11  1  0.76448407  0.74980359  0.69273378  1
  F  F12  1  0.43115074  0.34801381  0.52606711  1
  F  F13  1  0.65198619  0.08313692  0.52606711  1
  F  F14  1  0.91686308  0.56884926  0.52606711  1
  F  F15  1  0.68134715  0.09781740  0.64059955  1
  F  F16  1  0.41647026  0.31865285  0.64059955  1
  F  F17  1  0.90218260  0.58352974  0.64059955  1
  F  F18  1  0.90218260  0.31865285  0.14059955  1
  F  F19  1  0.68134715  0.58352974  0.14059955  1
  F  F20  1  0.41647026  0.09781740  0.14059955  1
  F  F21  1  0.65198619  0.56884926  0.02606711  1
  F  F22  1  0.91686308  0.34801381  0.02606711  1
  F  F23  1  0.43115074  0.08313692  0.02606711  1
  F  F24  1  0.09781740  0.68134715  0.85940045  1
  F  F25  1  0.31865285  0.41647026  0.85940045  1
  F  F26  1  0.58352974  0.90218260  0.85940045  1
  F  F27  1  0.34801381  0.43115074  0.97393289  1
  F  F28  1  0.08313692  0.65198619  0.97393289  1
  F  F29  1  0.56884926  0.91686308  0.97393289  1
  F  F30  1  0.56884926  0.65198619  0.47393289  1
  F  F31  1  0.34801381  0.91686308  0.47393289  1
  F  F32  1  0.08313692  0.43115074  0.47393289  1
  F  F33  1  0.31865285  0.90218260  0.35940045  1
  F  F34  1  0.58352974  0.68134715  0.35940045  1
  F  F35  1  0.09781740  0.41647026  0.35940045  1
  F  F36  1  0.00000000  0.00000000  0.83644148  1
  F  F37  1  0.00000000  0.00000000  0.66355852  1
  F  F38  1  0.00000000  0.00000000  0.16355852  1
  F  F39  1  0.00000000  0.00000000  0.33644148  1
  F  F40  1  0.66666667  0.33333333  0.16977482  1
  F  F41  1  0.66666667  0.33333333  0.99689185  1
  F  F42  1  0.66666667  0.33333333  0.49689185  1
  F  F43  1  0.66666667  0.33333333  0.66977482  1
  F  F44  1  0.33333333  0.66666667  0.50310815  1
  F  F45  1  0.33333333  0.66666667  0.33022518  1
  F  F46  1  0.33333333  0.66666667  0.83022518  1
  F  F47  1  0.33333333  0.66666667  0.00310815  1
  Li  Li48  1  0.78248029  0.83887475  0.48254125  1
  Li  Li49  1  -0.83887475  -0.05639446  0.48254125  1
  Li  Li50  1  0.05639446  -0.78248029  0.48254125  1
  Li  Li51  1  0.83887475  0.78248029  0.01745875  1
  Li  Li52  1  -0.05639446  -0.83887475  0.01745875  1
  Li  Li53  1  -0.78248029  0.05639446  0.01745875  1
  Li  Li54  1  -0.78248029  -0.83887475  -0.48254125  1
  Li  Li55  1  0.83887475  0.05639446  -0.48254125  1
  Li  Li56  1  -0.05639446  0.78248029  -0.48254125  1
  Li  Li57  1  -0.83887475  -0.78248029  0.98254125  1
  Li  Li58  1  0.05639446  0.83887475  0.98254125  1
  Li  Li59  1  0.78248029  -0.05639446  0.98254125  1
  Li  Li60  1  1.44914696  1.17220808  0.81587458  1
  Li  Li61  1  -0.17220808  0.27693888  0.81587458  1
  Li  Li62  1  0.72306112  -0.44914696  0.81587458  1
  Li  Li63  1  1.50554142  1.11581363  0.35079208  1
  Li  Li64  1  0.61027221  -0.50554142  0.35079208  1
  Li  Li65  1  -0.11581363  0.38972779  0.35079208  1
  Li  Li66  1  -0.11581363  -0.50554142  -0.14920792  1
  Li  Li67  1  1.50554142  0.38972779  -0.14920792  1
  Li  Li68  1  0.61027221  1.11581363  -0.14920792  1
  Li  Li69  1  -0.17220808  -0.44914696  1.31587458  1
  Li  Li70  1  0.72306112  1.17220808  1.31587458  1
  Li  Li71  1  1.44914696  0.27693888  1.31587458  1
  Li  Li72  1  1.11581363  1.50554142  1.14920792  1
  Li  Li73  1  -0.50554142  0.61027221  1.14920792  1
  Li  Li74  1  0.38972779  -0.11581363  1.14920792  1
  Li  Li75  1  1.17220808  1.44914696  0.68412542  1
  Li  Li76  1  0.27693888  -0.17220808  0.68412542  1
  Li  Li77  1  -0.44914696  0.72306112  0.68412542  1
  Li  Li78  1  -0.44914696  -0.17220808  0.18412542  1
  Li  Li79  1  1.17220808  0.72306112  0.18412542  1
  Li  Li80  1  0.27693888  1.44914696  0.18412542  1
  Li  Li81  1  -0.50554142  -0.11581363  1.64920792  1
  Li  Li82  1  0.38972779  1.50554142  1.64920792  1
  Li  Li83  1  1.11581363  0.61027221  1.64920792  1
  Li  Li84  1  0.00000000  0.00000000  0.00000000  1
  Li  Li85  1  0.00000000  0.00000000  0.50000000  1
  Li  Li86  1  0.66666667  0.33333333  0.33333333  1
  Li  Li87  1  0.66666667  0.33333333  0.83333333  1
  Li  Li88  1  0.33333333  0.66666667  0.66666667  1
  Li  Li89  1  0.33333333  0.66666667  0.16666667  1
  Li  Li90  1  0.00000000  0.00000000  0.25000000  1
  Li  Li91  1  0.00000000  0.00000000  0.75000000  1
  Li  Li92  1  0.66666667  0.33333333  0.58333333  1
  Li  Li93  1  0.66666667  0.33333333  0.08333333  1
  Li  Li94  1  0.33333333  0.66666667  0.91666667  1
  Li  Li95  1  0.33333333  0.66666667  0.41666667  1
