# generated using pymatgen
data_Li2Ca3F8
_symmetry_space_group_name_H-M   'P 1'
_cell_length_a   9.35392950
_cell_length_b   9.35392950
_cell_length_c   20.00780563
_cell_angle_alpha   90.00000000
_cell_angle_beta   90.00000000
_cell_angle_gamma   90.00000000
_symmetry_Int_Tables_number   1
_chemical_formula_structural   Li2Ca3F8
_chemical_formula_sum   'Li16 Ca24 F64'
_cell_volume   1750.60290413
_cell_formula_units_Z   8
loop_
 _symmetry_equiv_pos_site_id
 _symmetry_equiv_pos_as_xyz
  1  'x, y, z'
loop_
 _atom_site_type_symbol
 _atom_site_label
 _atom_site_symmetry_multiplicity
 _atom_site_fract_x
 _atom_site_fract_y
 _atom_site_fract_z
 _atom_site_occupancy
  Ca  Ca0  1  0.00000000  0.50000000  0.50000000  1
  Ca  Ca1  1  0.50000000  0.00000000  0.50000000  1
  Ca  Ca2  1  0.22748225  0.22748225  0.38570247  1
  Ca  Ca3  1  0.77251775  0.77251775  0.38570247  1
  Ca  Ca4  1  0.77251775  0.22748225  0.38570247  1
  Ca  Ca5  1  0.22748225  0.77251775  0.38570247  1
  Ca  Ca6  1  0.77251775  0.22748225  0.61429753  1
  Ca  Ca7  1  0.22748225  0.77251775  0.61429753  1
  Ca  Ca8  1  0.22748225  0.22748225  0.61429753  1
  Ca  Ca9  1  0.77251775  0.77251775  0.61429753  1
  Ca  Ca10  1  0.00000000  0.00000000  0.33817137  1
  Ca  Ca11  1  0.00000000  0.00000000  0.66182863  1
  Ca  Ca12  1  0.29527651  0.29527651  0.86475578  1
  Ca  Ca13  1  0.70472349  0.70472349  0.86475578  1
  Ca  Ca14  1  0.70472349  0.29527651  0.86475578  1
  Ca  Ca15  1  0.29527651  0.70472349  0.86475578  1
  Ca  Ca16  1  0.70472349  0.29527651  0.13524422  1
  Ca  Ca17  1  0.29527651  0.70472349  0.13524422  1
  Ca  Ca18  1  0.29527651  0.29527651  0.13524422  1
  Ca  Ca19  1  0.70472349  0.70472349  0.13524422  1
  Ca  Ca20  1  0.17517494  0.00000000  0.00000000  1
  Ca  Ca21  1  0.82482506  0.00000000  0.00000000  1
  Ca  Ca22  1  0.00000000  0.17517494  0.00000000  1
  Ca  Ca23  1  0.00000000  0.82482506  0.00000000  1
  F  F24  1  0.87737094  0.87737094  0.69355478  1
  F  F25  1  0.12262906  0.12262906  0.69355478  1
  F  F26  1  0.12262906  0.87737094  0.69355478  1
  F  F27  1  0.87737094  0.12262906  0.69355478  1
  F  F28  1  0.12262906  0.87737094  0.30644522  1
  F  F29  1  0.87737094  0.12262906  0.30644522  1
  F  F30  1  0.87737094  0.87737094  0.30644522  1
  F  F31  1  0.12262906  0.12262906  0.30644522  1
  F  F32  1  0.67166348  0.67166348  0.50000000  1
  F  F33  1  0.32833652  0.32833652  0.50000000  1
  F  F34  1  0.32833652  0.67166348  0.50000000  1
  F  F35  1  0.67166348  0.32833652  0.50000000  1
  F  F36  1  0.36401335  0.92326453  0.66296585  1
  F  F37  1  -0.36401335  -0.92326453  0.66296585  1
  F  F38  1  -0.92326453  0.36401335  0.66296585  1
  F  F39  1  0.92326453  -0.36401335  0.66296585  1
  F  F40  1  -0.36401335  0.92326453  -0.66296585  1
  F  F41  1  0.36401335  -0.92326453  -0.66296585  1
  F  F42  1  0.92326453  0.36401335  -0.66296585  1
  F  F43  1  -0.92326453  -0.36401335  -0.66296585  1
  F  F44  1  -0.36401335  -0.92326453  -0.66296585  1
  F  F45  1  0.36401335  0.92326453  -0.66296585  1
  F  F46  1  0.92326453  -0.36401335  -0.66296585  1
  F  F47  1  -0.92326453  0.36401335  -0.66296585  1
  F  F48  1  0.36401335  -0.92326453  0.66296585  1
  F  F49  1  -0.36401335  0.92326453  0.66296585  1
  F  F50  1  -0.92326453  -0.36401335  0.66296585  1
  F  F51  1  0.92326453  0.36401335  0.66296585  1
  F  F52  1  0.30722017  0.18357448  0.07628433  1
  F  F53  1  0.69277983  0.81642552  0.07628433  1
  F  F54  1  0.81642552  0.30722017  0.07628433  1
  F  F55  1  0.18357448  0.69277983  0.07628433  1
  F  F56  1  0.69277983  0.18357448  0.92371567  1
  F  F57  1  0.30722017  0.81642552  0.92371567  1
  F  F58  1  0.18357448  0.30722017  0.92371567  1
  F  F59  1  0.81642552  0.69277983  0.92371567  1
  F  F60  1  0.69277983  0.81642552  0.92371567  1
  F  F61  1  0.30722017  0.18357448  0.92371567  1
  F  F62  1  0.18357448  0.69277983  0.92371567  1
  F  F63  1  0.81642552  0.30722017  0.92371567  1
  F  F64  1  0.30722017  0.81642552  0.07628433  1
  F  F65  1  0.69277983  0.18357448  0.07628433  1
  F  F66  1  0.81642552  0.69277983  0.07628433  1
  F  F67  1  0.18357448  0.30722017  0.07628433  1
  F  F68  1  0.56444310  0.56444310  0.50000000  1
  F  F69  1  0.43555690  0.43555690  0.50000000  1
  F  F70  1  0.43555690  0.56444310  0.50000000  1
  F  F71  1  0.56444310  0.43555690  0.50000000  1
  F  F72  1  0.77240180  0.61995764  0.96027291  1
  F  F73  1  0.22759820  0.38004236  0.96027291  1
  F  F74  1  0.38004236  0.77240180  0.96027291  1
  F  F75  1  0.61995764  0.22759820  0.96027291  1
  F  F76  1  0.22759820  0.61995764  0.03972709  1
  F  F77  1  0.77240180  0.38004236  0.03972709  1
  F  F78  1  0.61995764  0.77240180  0.03972709  1
  F  F79  1  0.38004236  0.22759820  0.03972709  1
  F  F80  1  0.22759820  0.38004236  0.03972709  1
  F  F81  1  0.77240180  0.61995764  0.03972709  1
  F  F82  1  0.61995764  0.22759820  0.03972709  1
  F  F83  1  0.38004236  0.77240180  0.03972709  1
  F  F84  1  0.77240180  0.38004236  0.96027291  1
  F  F85  1  0.22759820  0.61995764  0.96027291  1
  F  F86  1  0.38004236  0.22759820  0.96027291  1
  F  F87  1  0.61995764  0.77240180  0.96027291  1
  Li  Li88  1  0.00000000  0.50000000  0.00000000  1
  Li  Li89  1  0.50000000  0.00000000  0.00000000  1
  Li  Li90  1  0.07136739  0.07136739  0.39804378  1
  Li  Li91  1  0.92863261  0.92863261  0.39804378  1
  Li  Li92  1  0.92863261  0.07136739  0.39804378  1
  Li  Li93  1  0.07136739  0.92863261  0.39804378  1
  Li  Li94  1  0.92863261  0.07136739  0.60195622  1
  Li  Li95  1  0.07136739  0.92863261  0.60195622  1
  Li  Li96  1  0.07136739  0.07136739  0.60195622  1
  Li  Li97  1  0.92863261  0.92863261  0.60195622  1
  Li  Li98  1  0.28135091  0.50000000  0.50000000  1
  Li  Li99  1  0.71864909  0.50000000  0.50000000  1
  Li  Li100  1  0.50000000  0.28135091  0.50000000  1
  Li  Li101  1  0.50000000  0.71864909  0.50000000  1
  Li  Li102  1  0.00000000  0.00000000  0.24186670  1
  Li  Li103  1  0.00000000  0.00000000  0.75813330  1
