# generated using pymatgen
data_Li3YScF
_symmetry_space_group_name_H-M   'P 1'
_cell_length_a   3.27586232
_cell_length_b   3.16033375
_cell_length_c   5.60059821
_cell_angle_alpha   108.79527744
_cell_angle_beta   104.30738993
_cell_angle_gamma   109.76775503
_symmetry_Int_Tables_number   1
_chemical_formula_structural   Li3YScF
_chemical_formula_sum   'Li3 Y1 Sc1 F1'
_cell_volume   47.34978101
_cell_formula_units_Z   1
loop_
 _symmetry_equiv_pos_site_id
 _symmetry_equiv_pos_as_xyz
  1  'x, y, z'
loop_
 _atom_site_type_symbol
 _atom_site_label
 _atom_site_symmetry_multiplicity
 _atom_site_fract_x
 _atom_site_fract_y
 _atom_site_fract_z
 _atom_site_occupancy
  F  F0  1  0.12500000  0.12500000  0.12500000  1
  Sc  Sc1  1  0.50000000  0.50000000  0.50000000  1
  Y  Y2  1  0.25000000  0.25000000  0.25000000  1
  Li  Li3  1  0.75000000  0.75000000  0.75000000  1
  Li  Li4  1  0.92266744  0.94339616  0.77624775  1
  Li  Li5  1  0.95572418  0.31105870  0.48624310  1
