# generated using pymatgen
data_LiF
_symmetry_space_group_name_H-M   'P 1'
_cell_length_a   8.83789566
_cell_length_b   8.83789566
_cell_length_c   5.05762334
_cell_angle_alpha   90.00000000
_cell_angle_beta   90.00000000
_cell_angle_gamma   120.00000000
_symmetry_Int_Tables_number   1
_chemical_formula_structural   LiF
_chemical_formula_sum   'Li16 F16'
_cell_volume   342.11715678
_cell_formula_units_Z   16
loop_
 _symmetry_equiv_pos_site_id
 _symmetry_equiv_pos_as_xyz
  1  'x, y, z'
loop_
 _atom_site_type_symbol
 _atom_site_label
 _atom_site_symmetry_multiplicity
 _atom_site_fract_x
 _atom_site_fract_y
 _atom_site_fract_z
 _atom_site_occupancy
  F  F0  1  0.07239132  0.26647319  0.71445838  1
  F  F1  1  0.73352681  0.80591813  0.71445838  1
  F  F2  1  0.19408187  0.92760868  0.71445838  1
  F  F3  1  0.73352681  0.92760868  0.28554162  1
  F  F4  1  0.19408187  0.26647319  0.28554162  1
  F  F5  1  0.07239132  0.80591813  0.28554162  1
  F  F6  1  0.00000000  0.00000000  0.00000000  1
  F  F7  1  0.04859330  0.56136668  0.92488355  1
  F  F8  1  0.43863332  0.48722662  0.92488355  1
  F  F9  1  0.51277338  0.95140670  0.92488355  1
  F  F10  1  0.43863332  0.95140670  0.07511645  1
  F  F11  1  0.51277338  0.56136668  0.07511645  1
  F  F12  1  0.04859330  0.48722662  0.07511645  1
  F  F13  1  0.89334391  0.10665609  0.50000000  1
  F  F14  1  0.89334391  0.78668782  0.50000000  1
  F  F15  1  0.21331218  0.10665609  0.50000000  1
  Li  Li16  1  0.13270589  0.86729411  0.00000000  1
  Li  Li17  1  0.13270589  0.26541179  0.00000000  1
  Li  Li18  1  0.73458821  0.86729411  0.00000000  1
  Li  Li19  1  0.25130505  0.88490593  0.21140487  1
  Li  Li20  1  -0.88490593  -0.63360088  0.21140487  1
  Li  Li21  1  0.63360088  -0.25130505  0.21140487  1
  Li  Li22  1  -0.88490593  -0.25130505  -0.21140487  1
  Li  Li23  1  0.63360088  0.88490593  -0.21140487  1
  Li  Li24  1  0.25130505  -0.63360088  -0.21140487  1
  Li  Li25  1  0.30904386  0.10612887  0.20206560  1
  Li  Li26  1  0.89387113  0.20291499  0.20206560  1
  Li  Li27  1  0.79708501  0.69095614  0.20206560  1
  Li  Li28  1  0.89387113  0.69095614  0.79793440  1
  Li  Li29  1  0.79708501  0.10612887  0.79793440  1
  Li  Li30  1  0.30904386  0.20291499  0.79793440  1
  Li  Li31  1  0.66666667  0.33333333  0.50000000  1
