# generated using pymatgen
data_LiCaF3
_symmetry_space_group_name_H-M   'P 1'
_cell_length_a   9.50942455
_cell_length_b   9.50942455
_cell_length_c   25.24549560
_cell_angle_alpha   90.00000000
_cell_angle_beta   90.00000000
_cell_angle_gamma   120.00000000
_symmetry_Int_Tables_number   1
_chemical_formula_structural   LiCaF3
_chemical_formula_sum   'Li18 Ca18 F54'
_cell_volume   1977.07437249
_cell_formula_units_Z   18
loop_
 _symmetry_equiv_pos_site_id
 _symmetry_equiv_pos_as_xyz
  1  'x, y, z'
loop_
 _atom_site_type_symbol
 _atom_site_label
 _atom_site_symmetry_multiplicity
 _atom_site_fract_x
 _atom_site_fract_y
 _atom_site_fract_z
 _atom_site_occupancy
  Ca  Ca0  1  0.50000000  0.00000000  -0.00000000  1
  Ca  Ca1  1  0.00000000  0.50000000  0.00000000  1
  Ca  Ca2  1  0.50000000  0.50000000  0.00000000  1
  Ca  Ca3  1  0.00000000  0.50000000  0.50000000  1
  Ca  Ca4  1  0.50000000  0.00000000  0.50000000  1
  Ca  Ca5  1  0.50000000  0.50000000  0.50000000  1
  Ca  Ca6  1  0.16666667  0.33333333  0.33333333  1
  Ca  Ca7  1  0.66666667  0.83333333  0.33333333  1
  Ca  Ca8  1  0.16666667  0.83333333  0.33333333  1
  Ca  Ca9  1  0.66666667  0.83333333  0.83333333  1
  Ca  Ca10  1  0.16666667  0.33333333  0.83333333  1
  Ca  Ca11  1  0.16666667  0.83333333  0.83333333  1
  Ca  Ca12  1  0.83333333  0.66666667  0.66666667  1
  Ca  Ca13  1  0.33333333  0.16666667  0.66666667  1
  Ca  Ca14  1  0.83333333  0.16666667  0.66666667  1
  Ca  Ca15  1  0.33333333  0.16666667  0.16666667  1
  Ca  Ca16  1  0.83333333  0.66666667  0.16666667  1
  Ca  Ca17  1  0.83333333  0.16666667  0.16666667  1
  F  F18  1  0.71865817  0.12476693  0.29387961  1
  F  F19  1  -0.12476693  0.59389125  0.29387961  1
  F  F20  1  -0.59389125  -0.71865817  0.29387961  1
  F  F21  1  0.12476693  0.71865817  0.20612039  1
  F  F22  1  0.59389125  -0.12476693  0.20612039  1
  F  F23  1  -0.71865817  -0.59389125  0.20612039  1
  F  F24  1  -0.71865817  -0.12476693  -0.29387961  1
  F  F25  1  0.12476693  -0.59389125  -0.29387961  1
  F  F26  1  0.59389125  0.71865817  -0.29387961  1
  F  F27  1  -0.12476693  -0.71865817  0.79387961  1
  F  F28  1  -0.59389125  0.12476693  0.79387961  1
  F  F29  1  0.71865817  0.59389125  0.79387961  1
  F  F30  1  1.38532484  0.45810026  0.62721295  1
  F  F31  1  0.54189974  0.92722458  0.62721295  1
  F  F32  1  0.07277542  -0.38532484  0.62721295  1
  F  F33  1  0.79143359  1.05199151  0.53945372  1
  F  F34  1  1.26055791  0.20856641  0.53945372  1
  F  F35  1  -0.05199151  -0.26055791  0.53945372  1
  F  F36  1  -0.05199151  0.20856641  0.03945372  1
  F  F37  1  0.79143359  -0.26055791  0.03945372  1
  F  F38  1  1.26055791  1.05199151  0.03945372  1
  F  F39  1  0.54189974  -0.38532484  1.12721295  1
  F  F40  1  0.07277542  0.45810026  1.12721295  1
  F  F41  1  1.38532484  0.92722458  1.12721295  1
  F  F42  1  1.05199151  0.79143359  0.96054628  1
  F  F43  1  0.20856641  1.26055791  0.96054628  1
  F  F44  1  -0.26055791  -0.05199151  0.96054628  1
  F  F45  1  0.45810026  1.38532484  0.87278705  1
  F  F46  1  0.92722458  0.54189974  0.87278705  1
  F  F47  1  -0.38532484  0.07277542  0.87278705  1
  F  F48  1  -0.38532484  0.54189974  0.37278705  1
  F  F49  1  0.45810026  0.07277542  0.37278705  1
  F  F50  1  0.92722458  1.38532484  0.37278705  1
  F  F51  1  0.20856641  -0.05199151  1.46054628  1
  F  F52  1  -0.26055791  0.79143359  1.46054628  1
  F  F53  1  1.05199151  1.26055791  1.46054628  1
  F  F54  1  0.52522729  0.00000000  0.25000000  1
  F  F55  1  0.00000000  0.52522729  0.25000000  1
  F  F56  1  0.47477271  0.47477271  0.25000000  1
  F  F57  1  0.47477271  0.00000000  0.75000000  1
  F  F58  1  0.00000000  0.47477271  0.75000000  1
  F  F59  1  0.52522729  0.52522729  0.75000000  1
  F  F60  1  0.19189396  0.33333333  0.58333333  1
  F  F61  1  0.66666667  0.85856062  0.58333333  1
  F  F62  1  0.14143938  0.80810604  0.58333333  1
  F  F63  1  0.14143938  0.33333333  0.08333333  1
  F  F64  1  0.66666667  0.80810604  0.08333333  1
  F  F65  1  0.19189396  0.85856062  0.08333333  1
  F  F66  1  0.85856062  0.66666667  0.91666667  1
  F  F67  1  0.33333333  0.19189396  0.91666667  1
  F  F68  1  0.80810604  0.14143938  0.91666667  1
  F  F69  1  0.80810604  0.66666667  0.41666667  1
  F  F70  1  0.33333333  0.14143938  0.41666667  1
  F  F71  1  0.85856062  0.19189396  0.41666667  1
  Li  Li72  1  0.83529647  0.00000000  0.25000000  1
  Li  Li73  1  0.00000000  0.83529647  0.25000000  1
  Li  Li74  1  0.16470353  0.16470353  0.25000000  1
  Li  Li75  1  0.16470353  0.00000000  0.75000000  1
  Li  Li76  1  0.00000000  0.16470353  0.75000000  1
  Li  Li77  1  0.83529647  0.83529647  0.75000000  1
  Li  Li78  1  0.50196313  0.33333333  0.58333333  1
  Li  Li79  1  0.66666667  0.16862980  0.58333333  1
  Li  Li80  1  0.83137020  0.49803687  0.58333333  1
  Li  Li81  1  0.83137020  0.33333333  0.08333333  1
  Li  Li82  1  0.66666667  0.49803687  0.08333333  1
  Li  Li83  1  0.50196313  0.16862980  0.08333333  1
  Li  Li84  1  0.16862980  0.66666667  0.91666667  1
  Li  Li85  1  0.33333333  0.50196313  0.91666667  1
  Li  Li86  1  0.49803687  0.83137020  0.91666667  1
  Li  Li87  1  0.49803687  0.66666667  0.41666667  1
  Li  Li88  1  0.33333333  0.83137020  0.41666667  1
  Li  Li89  1  0.16862980  0.50196313  0.41666667  1
