# generated using pymatgen
data_LiF
_symmetry_space_group_name_H-M   'P 1'
_cell_length_a   8.69625217
_cell_length_b   8.94574010
_cell_length_c   8.14536730
_cell_angle_alpha   90.00000000
_cell_angle_beta   90.00000000
_cell_angle_gamma   90.00000000
_symmetry_Int_Tables_number   1
_chemical_formula_structural   LiF
_chemical_formula_sum   'Li24 F24'
_cell_volume   633.66405755
_cell_formula_units_Z   24
loop_
 _symmetry_equiv_pos_site_id
 _symmetry_equiv_pos_as_xyz
  1  'x, y, z'
loop_
 _atom_site_type_symbol
 _atom_site_label
 _atom_site_symmetry_multiplicity
 _atom_site_fract_x
 _atom_site_fract_y
 _atom_site_fract_z
 _atom_site_occupancy
  F  F0  1  0.23325204  0.00723807  0.09929552  1
  F  F1  1  0.26674796  0.99276193  0.59929552  1
  F  F2  1  0.76674796  0.50723807  0.90070448  1
  F  F3  1  0.73325204  0.49276193  0.40070448  1
  F  F4  1  0.76674796  0.99276193  0.90070448  1
  F  F5  1  0.73325204  0.00723807  0.40070448  1
  F  F6  1  0.23325204  0.49276193  0.09929552  1
  F  F7  1  0.26674796  0.50723807  0.59929552  1
  F  F8  1  0.06086120  0.29193179  0.48199842  1
  F  F9  1  0.43913880  0.70806821  0.98199842  1
  F  F10  1  0.93913880  0.79193179  0.51800158  1
  F  F11  1  0.56086120  0.20806821  0.01800158  1
  F  F12  1  0.93913880  0.70806821  0.51800158  1
  F  F13  1  0.56086120  0.29193179  0.01800158  1
  F  F14  1  0.06086120  0.20806821  0.48199842  1
  F  F15  1  0.43913880  0.79193179  0.98199842  1
  F  F16  1  0.92165643  0.03642679  0.49265654  1
  F  F17  1  0.57834357  0.96357321  0.99265654  1
  F  F18  1  0.07834357  0.53642679  0.50734346  1
  F  F19  1  0.42165643  0.46357321  0.00734346  1
  F  F20  1  0.07834357  0.96357321  0.50734346  1
  F  F21  1  0.42165643  0.03642679  0.00734346  1
  F  F22  1  0.92165643  0.46357321  0.49265654  1
  F  F23  1  0.57834357  0.53642679  0.99265654  1
  Li  Li24  1  0.00000000  0.00000000  0.00000000  1
  Li  Li25  1  0.50000000  0.00000000  0.50000000  1
  Li  Li26  1  0.00000000  0.50000000  0.00000000  1
  Li  Li27  1  0.50000000  0.50000000  0.50000000  1
  Li  Li28  1  0.04793545  0.40440040  0.84987084  1
  Li  Li29  1  0.45206455  -0.40440040  1.34987084  1
  Li  Li30  1  -0.04793545  0.90440040  -0.84987084  1
  Li  Li31  1  0.54793545  0.09559960  -0.34987084  1
  Li  Li32  1  -0.04793545  -0.40440040  -0.84987084  1
  Li  Li33  1  0.54793545  0.40440040  -0.34987084  1
  Li  Li34  1  0.04793545  0.09559960  0.84987084  1
  Li  Li35  1  0.45206455  0.90440040  1.34987084  1
  Li  Li36  1  0.73023764  0.25000000  0.67584902  1
  Li  Li37  1  0.76976236  0.75000000  0.17584902  1
  Li  Li38  1  0.26976236  0.75000000  0.32415098  1
  Li  Li39  1  0.23023764  0.25000000  0.82415098  1
  Li  Li40  1  0.11586061  0.25000000  0.06891621  1
  Li  Li41  1  0.38413939  0.75000000  0.56891621  1
  Li  Li42  1  0.88413939  0.75000000  0.93108379  1
  Li  Li43  1  0.61586061  0.25000000  0.43108379  1
  Li  Li44  1  0.16991982  0.25000000  0.52923361  1
  Li  Li45  1  0.33008018  0.75000000  0.02923361  1
  Li  Li46  1  0.83008018  0.75000000  0.47076639  1
  Li  Li47  1  0.66991982  0.25000000  0.97076639  1
