# generated using pymatgen
data_LiCaF3
_symmetry_space_group_name_H-M   'P 1'
_cell_length_a   7.47361084
_cell_length_b   7.47361084
_cell_length_c   33.36751692
_cell_angle_alpha   90.00000000
_cell_angle_beta   90.00000000
_cell_angle_gamma   120.00000000
_symmetry_Int_Tables_number   1
_chemical_formula_structural   LiCaF3
_chemical_formula_sum   'Li18 Ca18 F54'
_cell_volume   1614.04441178
_cell_formula_units_Z   18
loop_
 _symmetry_equiv_pos_site_id
 _symmetry_equiv_pos_as_xyz
  1  'x, y, z'
loop_
 _atom_site_type_symbol
 _atom_site_label
 _atom_site_symmetry_multiplicity
 _atom_site_fract_x
 _atom_site_fract_y
 _atom_site_fract_z
 _atom_site_occupancy
  Ca  Ca0  1  0.30898973  0.35472640  0.91571008  1
  Ca  Ca1  1  -0.35472640  -0.04573667  0.91571008  1
  Ca  Ca2  1  0.04573667  -0.30898973  0.91571008  1
  Ca  Ca3  1  -0.35472640  -0.30898973  -0.91571008  1
  Ca  Ca4  1  0.04573667  0.35472640  -0.91571008  1
  Ca  Ca5  1  0.30898973  -0.04573667  -0.91571008  1
  Ca  Ca6  1  0.52225670  0.35531105  0.30985160  1
  Ca  Ca7  1  0.64468895  0.16694565  0.30985160  1
  Ca  Ca8  1  0.83305435  0.47774330  0.30985160  1
  Ca  Ca9  1  0.64468895  0.47774330  0.69014840  1
  Ca  Ca10  1  0.83305435  0.35531105  0.69014840  1
  Ca  Ca11  1  0.52225670  0.16694565  0.69014840  1
  Ca  Ca12  1  0.02940581  0.38746564  0.84476482  1
  Ca  Ca13  1  0.61253436  0.64194017  0.84476482  1
  Ca  Ca14  1  0.35805983  0.97059419  0.84476482  1
  Ca  Ca15  1  0.61253436  0.97059419  0.15523518  1
  Ca  Ca16  1  0.35805983  0.38746564  0.15523518  1
  Ca  Ca17  1  0.02940581  0.64194017  0.15523518  1
  F  F18  1  0.75350513  0.16920539  0.99399304  1
  F  F19  1  0.83079461  0.58429975  0.99399304  1
  F  F20  1  0.41570025  0.24649487  0.99399304  1
  F  F21  1  0.83079461  0.24649487  0.00600696  1
  F  F22  1  0.41570025  0.16920539  0.00600696  1
  F  F23  1  0.75350513  0.58429975  0.00600696  1
  F  F24  1  0.66666667  0.33333333  0.50000000  1
  F  F25  1  0.51032628  0.56976256  0.45604935  1
  F  F26  1  0.43023744  0.94056372  0.45604935  1
  F  F27  1  0.05943628  0.48967372  0.45604935  1
  F  F28  1  0.43023744  0.48967372  0.54395065  1
  F  F29  1  0.05943628  0.56976256  0.54395065  1
  F  F30  1  0.51032628  0.94056372  0.54395065  1
  F  F31  1  0.74189636  0.64424634  0.42899318  1
  F  F32  1  0.35575366  0.09765003  0.42899318  1
  F  F33  1  0.90234997  0.25810364  0.42899318  1
  F  F34  1  0.35575366  0.25810364  0.57100682  1
  F  F35  1  0.90234997  0.64424634  0.57100682  1
  F  F36  1  0.74189636  0.09765003  0.57100682  1
  F  F37  1  0.43895200  0.41388418  0.05293731  1
  F  F38  1  0.58611582  0.02506782  0.05293731  1
  F  F39  1  0.97493218  0.56104800  0.05293731  1
  F  F40  1  0.58611582  0.56104800  0.94706269  1
  F  F41  1  0.97493218  0.41388418  0.94706269  1
  F  F42  1  0.43895200  0.02506782  0.94706269  1
  F  F43  1  0.88812300  0.11187700  0.50000000  1
  F  F44  1  0.88812300  0.77624599  0.50000000  1
  F  F45  1  0.22375401  0.11187700  0.50000000  1
  F  F46  1  0.20472050  0.42393291  0.39018809  1
  F  F47  1  0.57606709  0.78078759  0.39018809  1
  F  F48  1  0.21921241  0.79527950  0.39018809  1
  F  F49  1  0.57606709  0.79527950  0.60981191  1
  F  F50  1  0.21921241  0.42393291  0.60981191  1
  F  F51  1  0.20472050  0.78078759  0.60981191  1
  F  F52  1  0.03820115  0.08060784  0.45782750  1
  F  F53  1  0.91939216  0.95759331  0.45782750  1
  F  F54  1  0.04240669  0.96179885  0.45782750  1
  F  F55  1  0.91939216  0.96179885  0.54217250  1
  F  F56  1  0.04240669  0.08060784  0.54217250  1
  F  F57  1  0.03820115  0.95759331  0.54217250  1
  F  F58  1  0.00000000  0.00000000  0.01556634  1
  F  F59  1  0.00000000  0.00000000  0.98443366  1
  F  F60  1  0.33333333  0.66666667  0.00000000  1
  F  F61  1  0.16527950  0.74111554  0.51400228  1
  F  F62  1  0.25888446  0.42416396  0.51400228  1
  F  F63  1  0.57583604  0.83472050  0.51400228  1
  F  F64  1  0.25888446  0.83472050  0.48599772  1
  F  F65  1  0.57583604  0.74111554  0.48599772  1
  F  F66  1  0.16527950  0.42416396  0.48599772  1
  F  F67  1  0.00000000  0.00000000  0.26685378  1
  F  F68  1  0.00000000  0.00000000  0.73314622  1
  F  F69  1  0.29293748  0.70706252  0.50000000  1
  F  F70  1  0.29293748  0.58587496  0.50000000  1
  F  F71  1  0.41412504  0.70706252  0.50000000  1
  Li  Li72  1  0.73103992  0.47185540  0.63177780  1
  Li  Li73  1  0.52814460  0.25918452  0.63177780  1
  Li  Li74  1  0.74081548  0.26896008  0.63177780  1
  Li  Li75  1  0.52814460  0.26896008  0.36822220  1
  Li  Li76  1  0.74081548  0.47185540  0.36822220  1
  Li  Li77  1  0.73103992  0.25918452  0.36822220  1
  Li  Li78  1  0.39186857  0.03961346  0.54398215  1
  Li  Li79  1  0.96038654  0.35225511  0.54398215  1
  Li  Li80  1  0.64774489  0.60813143  0.54398215  1
  Li  Li81  1  0.96038654  0.60813143  0.45601785  1
  Li  Li82  1  0.64774489  0.03961346  0.45601785  1
  Li  Li83  1  0.39186857  0.35225511  0.45601785  1
  Li  Li84  1  0.45995630  0.62024067  0.60774368  1
  Li  Li85  1  0.37975933  0.83971562  0.60774368  1
  Li  Li86  1  0.16028438  0.54004370  0.60774368  1
  Li  Li87  1  0.37975933  0.54004370  0.39225632  1
  Li  Li88  1  0.16028438  0.62024067  0.39225632  1
  Li  Li89  1  0.45995630  0.83971562  0.39225632  1
