# generated using pymatgen
data_Li2Cu3P2Se
_symmetry_space_group_name_H-M   'P 1'
_cell_length_a   4.88385798
_cell_length_b   5.01925399
_cell_length_c   6.65240689
_cell_angle_alpha   94.41521894
_cell_angle_beta   99.09024252
_cell_angle_gamma   106.84515093
_symmetry_Int_Tables_number   1
_chemical_formula_structural   Li2Cu3P2Se
_chemical_formula_sum   'Li2 Cu3 P2 Se1'
_cell_volume   152.80934388
_cell_formula_units_Z   1
loop_
 _symmetry_equiv_pos_site_id
 _symmetry_equiv_pos_as_xyz
  1  'x, y, z'
loop_
 _atom_site_type_symbol
 _atom_site_label
 _atom_site_symmetry_multiplicity
 _atom_site_fract_x
 _atom_site_fract_y
 _atom_site_fract_z
 _atom_site_occupancy
  P  P0  1  0.00000000  0.00000000  0.00000000  1
  P  P1  1  0.50000000  0.50000000  0.50000000  1
  Se  Se2  1  0.50000000  0.50000000  0.00000000  1
  Li  Li3  1  0.50000000  0.00000000  0.50000000  1
  Li  Li4  1  0.00000000  0.50000000  0.50000000  1
  Cu  Cu5  1  0.71997628  0.37771351  0.04514785  1
  Cu  Cu6  1  0.15117063  0.90958866  0.22114696  1
  Cu  Cu7  1  0.75677942  0.72084156  0.65112839  1
