# generated using pymatgen
data_Li2Si4Te3F12
_symmetry_space_group_name_H-M   'P 1'
_cell_length_a   7.12788846
_cell_length_b   7.12788846
_cell_length_c   20.72745766
_cell_angle_alpha   90.00000000
_cell_angle_beta   90.00000000
_cell_angle_gamma   90.00000000
_symmetry_Int_Tables_number   1
_chemical_formula_structural   Li2Si4Te3F12
_chemical_formula_sum   'Li8 Si16 Te12 F48'
_cell_volume   1053.09566895
_cell_formula_units_Z   4
loop_
 _symmetry_equiv_pos_site_id
 _symmetry_equiv_pos_as_xyz
  1  'x, y, z'
loop_
 _atom_site_type_symbol
 _atom_site_label
 _atom_site_symmetry_multiplicity
 _atom_site_fract_x
 _atom_site_fract_y
 _atom_site_fract_z
 _atom_site_occupancy
  F  F0  1  0.87542583  0.02484633  0.72000281  1
  F  F1  1  -0.37542583  -0.02484633  1.22000281  1
  F  F2  1  0.22515367  1.62542583  0.97000281  1
  F  F3  1  0.27484633  -0.62542583  1.47000281  1
  F  F4  1  -0.37542583  0.02484633  -0.22000281  1
  F  F5  1  0.87542583  -0.02484633  -0.72000281  1
  F  F6  1  0.27484633  1.62542583  -0.47000281  1
  F  F7  1  0.22515367  -0.62542583  0.02999719  1
  F  F8  1  -0.87542583  -0.02484633  -0.72000281  1
  F  F9  1  1.37542583  0.02484633  -0.22000281  1
  F  F10  1  0.77484633  -0.62542583  0.02999719  1
  F  F11  1  0.72515367  1.62542583  -0.47000281  1
  F  F12  1  1.37542583  -0.02484633  1.22000281  1
  F  F13  1  -0.87542583  0.02484633  0.72000281  1
  F  F14  1  0.72515367  -0.62542583  1.47000281  1
  F  F15  1  0.77484633  1.62542583  0.97000281  1
  F  F16  1  1.37542583  0.52484633  1.22000281  1
  F  F17  1  0.12457417  0.47515367  1.72000281  1
  F  F18  1  0.72515367  2.12542583  1.47000281  1
  F  F19  1  0.77484633  -0.12542583  1.97000281  1
  F  F20  1  0.12457417  0.52484633  0.27999719  1
  F  F21  1  1.37542583  0.47515367  -0.22000281  1
  F  F22  1  0.77484633  2.12542583  0.02999719  1
  F  F23  1  0.72515367  -0.12542583  0.52999719  1
  F  F24  1  -0.37542583  0.47515367  -0.22000281  1
  F  F25  1  1.87542583  0.52484633  0.27999719  1
  F  F26  1  1.27484633  -0.12542583  0.52999719  1
  F  F27  1  1.22515367  2.12542583  0.02999719  1
  F  F28  1  1.87542583  0.47515367  1.72000281  1
  F  F29  1  -0.37542583  0.52484633  1.22000281  1
  F  F30  1  1.22515367  -0.12542583  1.97000281  1
  F  F31  1  1.27484633  2.12542583  1.47000281  1
  F  F32  1  0.78381780  0.00000000  0.00000000  1
  F  F33  1  0.71618220  -0.00000000  0.50000000  1
  F  F34  1  0.25000000  0.53381780  0.25000000  1
  F  F35  1  0.25000000  0.46618220  0.75000000  1
  F  F36  1  0.21618220  0.00000000  0.00000000  1
  F  F37  1  0.28381780  0.00000000  0.50000000  1
  F  F38  1  0.75000000  0.46618220  0.75000000  1
  F  F39  1  0.75000000  0.53381780  0.25000000  1
  F  F40  1  0.28381780  0.50000000  0.50000000  1
  F  F41  1  0.21618220  0.50000000  0.00000000  1
  F  F42  1  0.75000000  0.03381780  0.75000000  1
  F  F43  1  0.75000000  0.96618220  0.25000000  1
  F  F44  1  0.71618220  0.50000000  0.50000000  1
  F  F45  1  0.78381780  0.50000000  0.00000000  1
  F  F46  1  0.25000000  0.96618220  0.25000000  1
  F  F47  1  0.25000000  0.03381780  0.75000000  1
  Li  Li48  1  0.00000000  0.25000000  0.68154559  1
  Li  Li49  1  0.00000000  0.75000000  0.93154559  1
  Li  Li50  1  0.50000000  0.25000000  0.81845441  1
  Li  Li51  1  0.50000000  0.75000000  0.56845441  1
  Li  Li52  1  0.50000000  0.75000000  0.18154559  1
  Li  Li53  1  0.50000000  0.25000000  0.43154559  1
  Li  Li54  1  0.00000000  0.75000000  0.31845441  1
  Li  Li55  1  0.00000000  0.25000000  0.06845441  1
  Si  Si56  1  0.00000000  0.00000000  0.00000000  1
  Si  Si57  1  0.50000000  0.00000000  0.50000000  1
  Si  Si58  1  0.25000000  0.75000000  0.25000000  1
  Si  Si59  1  0.25000000  0.25000000  0.75000000  1
  Si  Si60  1  0.50000000  0.50000000  0.50000000  1
  Si  Si61  1  0.00000000  0.50000000  0.00000000  1
  Si  Si62  1  0.75000000  0.25000000  0.75000000  1
  Si  Si63  1  0.75000000  0.75000000  0.25000000  1
  Si  Si64  1  0.00000000  0.00000000  0.50000000  1
  Si  Si65  1  0.50000000  0.00000000  0.00000000  1
  Si  Si66  1  0.25000000  0.75000000  0.75000000  1
  Si  Si67  1  0.25000000  0.25000000  0.25000000  1
  Si  Si68  1  0.50000000  0.50000000  0.00000000  1
  Si  Si69  1  0.00000000  0.50000000  0.50000000  1
  Si  Si70  1  0.75000000  0.25000000  0.25000000  1
  Si  Si71  1  0.75000000  0.75000000  0.75000000  1
  Te  Te72  1  0.00000000  0.25000000  0.97350652  1
  Te  Te73  1  0.00000000  0.75000000  0.22350652  1
  Te  Te74  1  0.50000000  0.25000000  0.52649348  1
  Te  Te75  1  0.50000000  0.75000000  0.27649348  1
  Te  Te76  1  0.50000000  0.75000000  0.47350652  1
  Te  Te77  1  0.50000000  0.25000000  0.72350652  1
  Te  Te78  1  0.00000000  0.75000000  0.02649348  1
  Te  Te79  1  0.00000000  0.25000000  0.77649348  1
  Te  Te80  1  0.00000000  0.25000000  0.37500000  1
  Te  Te81  1  0.00000000  0.75000000  0.62500000  1
  Te  Te82  1  0.50000000  0.75000000  0.87500000  1
  Te  Te83  1  0.50000000  0.25000000  0.12500000  1
