# generated using pymatgen
data_LiF
_symmetry_space_group_name_H-M   'P 1'
_cell_length_a   7.84044919
_cell_length_b   6.14431960
_cell_length_c   9.30335085
_cell_angle_alpha   90.00000000
_cell_angle_beta   90.00000000
_cell_angle_gamma   90.00000000
_symmetry_Int_Tables_number   1
_chemical_formula_structural   LiF
_chemical_formula_sum   'Li16 F16'
_cell_volume   448.18172300
_cell_formula_units_Z   16
loop_
 _symmetry_equiv_pos_site_id
 _symmetry_equiv_pos_as_xyz
  1  'x, y, z'
loop_
 _atom_site_type_symbol
 _atom_site_label
 _atom_site_symmetry_multiplicity
 _atom_site_fract_x
 _atom_site_fract_y
 _atom_site_fract_z
 _atom_site_occupancy
  F  F0  1  0.00000000  0.00000000  0.50000000  1
  F  F1  1  0.50000000  0.00000000  0.00000000  1
  F  F2  1  0.00000000  0.50000000  0.50000000  1
  F  F3  1  0.50000000  0.50000000  0.00000000  1
  F  F4  1  0.80011477  0.99366017  0.22625180  1
  F  F5  1  0.69988523  0.00633983  0.72625180  1
  F  F6  1  0.19988523  0.49366017  0.77374820  1
  F  F7  1  0.30011477  0.50633983  0.27374820  1
  F  F8  1  0.19988523  0.00633983  0.77374820  1
  F  F9  1  0.30011477  0.99366017  0.27374820  1
  F  F10  1  0.80011477  0.50633983  0.22625180  1
  F  F11  1  0.69988523  0.49366017  0.72625180  1
  F  F12  1  0.00000000  0.00000000  0.00000000  1
  F  F13  1  0.50000000  0.00000000  0.50000000  1
  F  F14  1  0.00000000  0.50000000  -0.00000000  1
  F  F15  1  0.50000000  0.50000000  0.50000000  1
  Li  Li16  1  0.38340253  0.25000000  0.80310348  1
  Li  Li17  1  0.11659747  0.75000000  0.30310348  1
  Li  Li18  1  0.61659747  0.75000000  0.19689652  1
  Li  Li19  1  0.88340253  0.25000000  0.69689652  1
  Li  Li20  1  0.26398211  0.43864161  0.18422465  1
  Li  Li21  1  0.23601789  -0.43864161  0.68422465  1
  Li  Li22  1  -0.26398211  0.93864161  -0.18422465  1
  Li  Li23  1  0.76398211  0.06135839  0.31577535  1
  Li  Li24  1  -0.26398211  -0.43864161  -0.18422465  1
  Li  Li25  1  0.76398211  0.43864161  0.31577535  1
  Li  Li26  1  0.26398211  0.06135839  0.18422465  1
  Li  Li27  1  0.23601789  0.93864161  0.68422465  1
  Li  Li28  1  0.12393436  0.25000000  0.61875395  1
  Li  Li29  1  0.37606564  0.75000000  0.11875395  1
  Li  Li30  1  0.87606564  0.75000000  0.38124605  1
  Li  Li31  1  0.62393436  0.25000000  0.88124605  1
