# generated using pymatgen
data_LiF
_symmetry_space_group_name_H-M   'P 1'
_cell_length_a   8.08089134
_cell_length_b   5.56096788
_cell_length_c   7.34989067
_cell_angle_alpha   90.00000000
_cell_angle_beta   90.00000000
_cell_angle_gamma   90.00000000
_symmetry_Int_Tables_number   1
_chemical_formula_structural   LiF
_chemical_formula_sum   'Li24 F24'
_cell_volume   330.28627893
_cell_formula_units_Z   24
loop_
 _symmetry_equiv_pos_site_id
 _symmetry_equiv_pos_as_xyz
  1  'x, y, z'
loop_
 _atom_site_type_symbol
 _atom_site_label
 _atom_site_symmetry_multiplicity
 _atom_site_fract_x
 _atom_site_fract_y
 _atom_site_fract_z
 _atom_site_occupancy
  F  F0  1  0.99404357  0.00841906  0.54781150  1
  F  F1  1  0.50595643  0.99158094  0.04781150  1
  F  F2  1  0.00595643  0.50841906  0.45218850  1
  F  F3  1  0.49404357  0.49158094  0.95218850  1
  F  F4  1  0.00595643  0.99158094  0.45218850  1
  F  F5  1  0.49404357  0.00841906  0.95218850  1
  F  F6  1  0.99404357  0.49158094  0.54781150  1
  F  F7  1  0.50595643  0.50841906  0.04781150  1
  F  F8  1  0.00000000  0.00000000  0.00000000  1
  F  F9  1  0.50000000  0.00000000  0.50000000  1
  F  F10  1  0.00000000  0.50000000  0.00000000  1
  F  F11  1  0.50000000  0.50000000  0.50000000  1
  F  F12  1  0.65855955  0.92334389  0.43764462  1
  F  F13  1  0.84144045  0.07665611  0.93764462  1
  F  F14  1  0.34144045  0.42334389  0.56235538  1
  F  F15  1  0.15855955  0.57665611  0.06235538  1
  F  F16  1  0.34144045  0.07665611  0.56235538  1
  F  F17  1  0.15855955  0.92334389  0.06235538  1
  F  F18  1  0.65855955  0.57665611  0.43764462  1
  F  F19  1  0.84144045  0.42334389  0.93764462  1
  F  F20  1  0.05048760  0.25000000  0.14391920  1
  F  F21  1  0.44951240  0.75000000  0.64391920  1
  F  F22  1  0.94951240  0.75000000  0.85608080  1
  F  F23  1  0.55048760  0.25000000  0.35608080  1
  Li  Li24  1  0.49579055  0.25000000  0.94737483  1
  Li  Li25  1  0.00420945  0.75000000  0.44737483  1
  Li  Li26  1  0.50420945  0.75000000  0.05262517  1
  Li  Li27  1  0.99579055  0.25000000  0.55262517  1
  Li  Li28  1  0.24616436  0.25000000  0.01266880  1
  Li  Li29  1  0.25383564  0.75000000  0.51266880  1
  Li  Li30  1  0.75383564  0.75000000  0.98733120  1
  Li  Li31  1  0.74616436  0.25000000  0.48733120  1
  Li  Li32  1  0.83054514  0.11229114  0.72481513  1
  Li  Li33  1  -0.33054514  -0.11229114  1.22481513  1
  Li  Li34  1  -0.83054514  0.61229114  -0.72481513  1
  Li  Li35  1  1.33054514  0.38770886  -0.22481513  1
  Li  Li36  1  -0.83054514  -0.11229114  -0.72481513  1
  Li  Li37  1  1.33054514  0.11229114  -0.22481513  1
  Li  Li38  1  0.83054514  0.38770886  0.72481513  1
  Li  Li39  1  -0.33054514  0.61229114  1.22481513  1
  Li  Li40  1  0.95878576  0.11949860  0.23114441  1
  Li  Li41  1  0.54121424  0.88050140  0.73114441  1
  Li  Li42  1  0.04121424  0.61949860  0.76885559  1
  Li  Li43  1  0.45878576  0.38050140  0.26885559  1
  Li  Li44  1  0.04121424  0.88050140  0.76885559  1
  Li  Li45  1  0.45878576  0.11949860  0.26885559  1
  Li  Li46  1  0.95878576  0.38050140  0.23114441  1
  Li  Li47  1  0.54121424  0.61949860  0.73114441  1
