# generated using pymatgen
data_LiF
_symmetry_space_group_name_H-M   'P 1'
_cell_length_a   10.19669079
_cell_length_b   3.44452359
_cell_length_c   15.04940719
_cell_angle_alpha   90.00000000
_cell_angle_beta   90.00000000
_cell_angle_gamma   90.00000000
_symmetry_Int_Tables_number   1
_chemical_formula_structural   LiF
_chemical_formula_sum   'Li24 F24'
_cell_volume   528.57644460
_cell_formula_units_Z   24
loop_
 _symmetry_equiv_pos_site_id
 _symmetry_equiv_pos_as_xyz
  1  'x, y, z'
loop_
 _atom_site_type_symbol
 _atom_site_label
 _atom_site_symmetry_multiplicity
 _atom_site_fract_x
 _atom_site_fract_y
 _atom_site_fract_z
 _atom_site_occupancy
  F  F0  1  0.52365300  0.25000000  0.52037209  1
  F  F1  1  0.97634700  0.75000000  0.02037209  1
  F  F2  1  0.47634700  0.75000000  0.47962791  1
  F  F3  1  0.02365300  0.25000000  0.97962791  1
  F  F4  1  0.89494002  0.40455086  0.32555487  1
  F  F5  1  0.60505998  0.59544914  0.82555487  1
  F  F6  1  0.10505998  0.90455086  0.67444513  1
  F  F7  1  0.39494002  0.09544914  0.17444513  1
  F  F8  1  0.10505998  0.59544914  0.67444513  1
  F  F9  1  0.39494002  0.40455086  0.17444513  1
  F  F10  1  0.89494002  0.09544914  0.32555487  1
  F  F11  1  0.60505998  0.90455086  0.82555487  1
  F  F12  1  0.41339052  0.25000000  0.28240065  1
  F  F13  1  0.08660948  0.75000000  0.78240065  1
  F  F14  1  0.58660948  0.75000000  0.71759935  1
  F  F15  1  0.91339052  0.25000000  0.21759935  1
  F  F16  1  0.08395713  0.61774101  0.41971557  1
  F  F17  1  0.41604287  0.38225899  0.91971557  1
  F  F18  1  0.91604287  0.11774101  0.58028443  1
  F  F19  1  0.58395713  0.88225899  0.08028443  1
  F  F20  1  0.91604287  0.38225899  0.58028443  1
  F  F21  1  0.58395713  0.61774101  0.08028443  1
  F  F22  1  0.08395713  0.88225899  0.41971557  1
  F  F23  1  0.41604287  0.11774101  0.91971557  1
  Li  Li24  1  0.49357154  0.52228523  0.24306382  1
  Li  Li25  1  0.00642846  -0.52228523  0.74306382  1
  Li  Li26  1  -0.49357154  1.02228523  -0.24306382  1
  Li  Li27  1  0.99357154  -0.02228523  0.25693618  1
  Li  Li28  1  -0.49357154  -0.52228523  -0.24306382  1
  Li  Li29  1  0.99357154  0.52228523  0.25693618  1
  Li  Li30  1  0.49357154  -0.02228523  0.24306382  1
  Li  Li31  1  0.00642846  1.02228523  0.74306382  1
  Li  Li32  1  0.00000000  0.00000000  0.00000000  1
  Li  Li33  1  0.50000000  0.00000000  0.50000000  1
  Li  Li34  1  0.00000000  0.50000000  0.00000000  1
  Li  Li35  1  0.50000000  0.50000000  0.50000000  1
  Li  Li36  1  0.54935704  0.25000000  0.88488211  1
  Li  Li37  1  0.95064296  0.75000000  0.38488211  1
  Li  Li38  1  0.45064296  0.75000000  0.11511789  1
  Li  Li39  1  0.04935704  0.25000000  0.61511789  1
  Li  Li40  1  0.08591542  0.25000000  0.06943943  1
  Li  Li41  1  0.41408458  0.75000000  0.56943943  1
  Li  Li42  1  0.91408458  0.75000000  0.93056057  1
  Li  Li43  1  0.58591542  0.25000000  0.43056057  1
  Li  Li44  1  0.00000000  0.00000000  0.50000000  1
  Li  Li45  1  0.50000000  0.00000000  0.00000000  1
  Li  Li46  1  0.00000000  0.50000000  0.50000000  1
  Li  Li47  1  0.50000000  0.50000000  0.00000000  1
