# generated using pymatgen
data_LiF
_symmetry_space_group_name_H-M   'P 1'
_cell_length_a   11.09020395
_cell_length_b   11.09020395
_cell_length_c   15.23249468
_cell_angle_alpha   90.00000000
_cell_angle_beta   90.00000000
_cell_angle_gamma   120.00000000
_symmetry_Int_Tables_number   1
_chemical_formula_structural   LiF
_chemical_formula_sum   'Li78 F78'
_cell_volume   1622.48515758
_cell_formula_units_Z   78
loop_
 _symmetry_equiv_pos_site_id
 _symmetry_equiv_pos_as_xyz
  1  'x, y, z'
loop_
 _atom_site_type_symbol
 _atom_site_label
 _atom_site_symmetry_multiplicity
 _atom_site_fract_x
 _atom_site_fract_y
 _atom_site_fract_z
 _atom_site_occupancy
  F  F0  1  0.67105044  0.18379557  0.93863351  1
  F  F1  1  0.81620443  0.48725487  0.93863351  1
  F  F2  1  0.51274513  0.32894956  0.93863351  1
  F  F3  1  0.18379557  0.67105044  0.56136649  1
  F  F4  1  0.48725487  0.81620443  0.56136649  1
  F  F5  1  0.32894956  0.51274513  0.56136649  1
  F  F6  1  0.32894956  0.81620443  0.06136649  1
  F  F7  1  0.18379557  0.51274513  0.06136649  1
  F  F8  1  0.48725487  0.67105044  0.06136649  1
  F  F9  1  0.81620443  0.32894956  0.43863351  1
  F  F10  1  0.51274513  0.18379557  0.43863351  1
  F  F11  1  0.67105044  0.48725487  0.43863351  1
  F  F12  1  0.33771711  0.51712890  0.27196684  1
  F  F13  1  0.48287110  0.82058821  0.27196684  1
  F  F14  1  0.17941179  0.66228289  0.27196684  1
  F  F15  1  0.85046224  0.00438378  0.89469982  1
  F  F16  1  0.15392154  0.14953776  0.89469982  1
  F  F17  1  0.99561622  0.84607846  0.89469982  1
  F  F18  1  0.99561622  0.14953776  0.39469982  1
  F  F19  1  0.85046224  0.84607846  0.39469982  1
  F  F20  1  0.15392154  0.00438378  0.39469982  1
  F  F21  1  0.48287110  0.66228289  0.77196684  1
  F  F22  1  0.17941179  0.51712890  0.77196684  1
  F  F23  1  0.33771711  0.82058821  0.77196684  1
  F  F24  1  0.00438378  0.85046224  0.60530018  1
  F  F25  1  0.14953776  0.15392154  0.60530018  1
  F  F26  1  0.84607846  0.99561622  0.60530018  1
  F  F27  1  0.51712890  0.33771711  0.22803316  1
  F  F28  1  0.82058821  0.48287110  0.22803316  1
  F  F29  1  0.66228289  0.17941179  0.22803316  1
  F  F30  1  0.66228289  0.48287110  0.72803316  1
  F  F31  1  0.51712890  0.17941179  0.72803316  1
  F  F32  1  0.82058821  0.33771711  0.72803316  1
  F  F33  1  0.14953776  0.99561622  0.10530018  1
  F  F34  1  0.84607846  0.85046224  0.10530018  1
  F  F35  1  0.00438378  0.15392154  0.10530018  1
  F  F36  1  0.98977842  0.40214010  0.64900869  1
  F  F37  1  0.59785990  0.58763832  0.64900869  1
  F  F38  1  0.41236168  0.01022158  0.64900869  1
  F  F39  1  0.40214010  0.98977842  0.85099131  1
  F  F40  1  0.58763832  0.59785990  0.85099131  1
  F  F41  1  0.01022158  0.41236168  0.85099131  1
  F  F42  1  0.01022158  0.59785990  0.35099131  1
  F  F43  1  0.40214010  0.41236168  0.35099131  1
  F  F44  1  0.58763832  0.98977842  0.35099131  1
  F  F45  1  0.59785990  0.01022158  0.14900869  1
  F  F46  1  0.41236168  0.40214010  0.14900869  1
  F  F47  1  0.98977842  0.58763832  0.14900869  1
  F  F48  1  0.65644509  0.73547344  0.98234203  1
  F  F49  1  0.26452656  0.92097165  0.98234203  1
  F  F50  1  0.07902835  0.34355491  0.98234203  1
  F  F51  1  0.06880677  0.32311175  0.18432464  1
  F  F52  1  0.25430498  0.93119323  0.18432464  1
  F  F53  1  0.67688825  0.74569502  0.18432464  1
  F  F54  1  0.67688825  0.93119323  0.68432464  1
  F  F55  1  0.06880677  0.74569502  0.68432464  1
  F  F56  1  0.25430498  0.32311175  0.68432464  1
  F  F57  1  0.26452656  0.34355491  0.48234203  1
  F  F58  1  0.07902835  0.73547344  0.48234203  1
  F  F59  1  0.65644509  0.92097165  0.48234203  1
  F  F60  1  0.32311175  0.06880677  0.31567536  1
  F  F61  1  0.93119323  0.25430498  0.31567536  1
  F  F62  1  0.74569502  0.67688825  0.31567536  1
  F  F63  1  0.73547344  0.65644509  0.51765797  1
  F  F64  1  0.92097165  0.26452656  0.51765797  1
  F  F65  1  0.34355491  0.07902835  0.51765797  1
  F  F66  1  0.34355491  0.26452656  0.01765797  1
  F  F67  1  0.73547344  0.07902835  0.01765797  1
  F  F68  1  0.92097165  0.65644509  0.01765797  1
  F  F69  1  0.93119323  0.67688825  0.81567536  1
  F  F70  1  0.74569502  0.06880677  0.81567536  1
  F  F71  1  0.32311175  0.25430498  0.81567536  1
  F  F72  1  0.00000000  0.00000000  0.00000000  1
  F  F73  1  0.00000000  0.00000000  0.50000000  1
  F  F74  1  0.66666667  0.33333333  0.33333333  1
  F  F75  1  0.66666667  0.33333333  0.83333333  1
  F  F76  1  0.33333333  0.66666667  0.66666667  1
  F  F77  1  0.33333333  0.66666667  0.16666667  1
  Li  Li78  1  0.31965729  0.00000000  0.25000000  1
  Li  Li79  1  0.00000000  0.31965729  0.25000000  1
  Li  Li80  1  0.68034271  0.68034271  0.25000000  1
  Li  Li81  1  0.68034271  0.00000000  0.75000000  1
  Li  Li82  1  0.00000000  0.68034271  0.75000000  1
  Li  Li83  1  0.31965729  0.31965729  0.75000000  1
  Li  Li84  1  0.98632396  0.33333333  0.58333333  1
  Li  Li85  1  0.66666667  0.65299062  0.58333333  1
  Li  Li86  1  0.34700938  0.01367604  0.58333333  1
  Li  Li87  1  0.34700938  0.33333333  0.08333333  1
  Li  Li88  1  0.66666667  0.01367604  0.08333333  1
  Li  Li89  1  0.98632396  0.65299062  0.08333333  1
  Li  Li90  1  0.65299062  0.66666667  0.91666667  1
  Li  Li91  1  0.33333333  0.98632396  0.91666667  1
  Li  Li92  1  0.01367604  0.34700938  0.91666667  1
  Li  Li93  1  0.01367604  0.66666667  0.41666667  1
  Li  Li94  1  0.33333333  0.34700938  0.41666667  1
  Li  Li95  1  0.65299062  0.98632396  0.41666667  1
  Li  Li96  1  0.00000000  0.00000000  0.25000000  1
  Li  Li97  1  0.00000000  0.00000000  0.75000000  1
  Li  Li98  1  0.66666667  0.33333333  0.58333333  1
  Li  Li99  1  0.66666667  0.33333333  0.08333333  1
  Li  Li100  1  0.33333333  0.66666667  0.91666667  1
  Li  Li101  1  0.33333333  0.66666667  0.41666667  1
  Li  Li102  1  0.50000000  0.00000000  0.00000000  1
  Li  Li103  1  0.00000000  0.50000000  0.00000000  1
  Li  Li104  1  0.50000000  0.50000000  0.00000000  1
  Li  Li105  1  0.00000000  0.50000000  0.50000000  1
  Li  Li106  1  0.50000000  0.00000000  0.50000000  1
  Li  Li107  1  0.50000000  0.50000000  0.50000000  1
  Li  Li108  1  0.16666667  0.33333333  0.33333333  1
  Li  Li109  1  0.66666667  0.83333333  0.33333333  1
  Li  Li110  1  0.16666667  0.83333333  0.33333333  1
  Li  Li111  1  0.66666667  0.83333333  0.83333333  1
  Li  Li112  1  0.16666667  0.33333333  0.83333333  1
  Li  Li113  1  0.16666667  0.83333333  0.83333333  1
  Li  Li114  1  0.83333333  0.66666667  0.66666667  1
  Li  Li115  1  0.33333333  0.16666667  0.66666667  1
  Li  Li116  1  0.83333333  0.16666667  0.66666667  1
  Li  Li117  1  0.33333333  0.16666667  0.16666667  1
  Li  Li118  1  0.83333333  0.66666667  0.16666667  1
  Li  Li119  1  0.83333333  0.16666667  0.16666667  1
  Li  Li120  1  0.72137900  0.24926861  0.05876154  1
  Li  Li121  1  -0.24926861  0.47211040  0.05876154  1
  Li  Li122  1  -0.47211040  -0.72137900  0.05876154  1
  Li  Li123  1  0.24926861  0.72137900  0.44123846  1
  Li  Li124  1  0.47211040  -0.24926861  0.44123846  1
  Li  Li125  1  -0.72137900  -0.47211040  0.44123846  1
  Li  Li126  1  -0.72137900  -0.24926861  -0.05876154  1
  Li  Li127  1  0.24926861  -0.47211040  -0.05876154  1
  Li  Li128  1  0.47211040  0.72137900  -0.05876154  1
  Li  Li129  1  -0.24926861  -0.72137900  0.55876154  1
  Li  Li130  1  -0.47211040  0.24926861  0.55876154  1
  Li  Li131  1  0.72137900  0.47211040  0.55876154  1
  Li  Li132  1  1.38804567  0.58260194  0.39209488  1
  Li  Li133  1  0.41739806  0.80544373  0.39209488  1
  Li  Li134  1  0.19455627  -0.38804567  0.39209488  1
  Li  Li135  1  0.91593528  1.05471234  0.77457179  1
  Li  Li136  1  1.13877706  0.08406472  0.77457179  1
  Li  Li137  1  -0.05471234  -0.13877706  0.77457179  1
  Li  Li138  1  -0.05471234  0.08406472  0.27457179  1
  Li  Li139  1  0.91593528  -0.13877706  0.27457179  1
  Li  Li140  1  1.13877706  1.05471234  0.27457179  1
  Li  Li141  1  0.41739806  -0.38804567  0.89209488  1
  Li  Li142  1  0.19455627  0.58260194  0.89209488  1
  Li  Li143  1  1.38804567  0.80544373  0.89209488  1
  Li  Li144  1  1.05471234  0.91593528  0.72542821  1
  Li  Li145  1  0.08406472  1.13877706  0.72542821  1
  Li  Li146  1  -0.13877706  -0.05471234  0.72542821  1
  Li  Li147  1  0.58260194  1.38804567  1.10790512  1
  Li  Li148  1  0.80544373  0.41739806  1.10790512  1
  Li  Li149  1  -0.38804567  0.19455627  1.10790512  1
  Li  Li150  1  -0.38804567  0.41739806  0.60790512  1
  Li  Li151  1  0.58260194  0.19455627  0.60790512  1
  Li  Li152  1  0.80544373  1.38804567  0.60790512  1
  Li  Li153  1  0.08406472  -0.05471234  1.22542821  1
  Li  Li154  1  -0.13877706  0.91593528  1.22542821  1
  Li  Li155  1  1.05471234  1.13877706  1.22542821  1
