# generated using pymatgen
data_LiF
_symmetry_space_group_name_H-M   'P 1'
_cell_length_a   13.06234785
_cell_length_b   6.35471026
_cell_length_c   5.54846230
_cell_angle_alpha   90.00000000
_cell_angle_beta   90.00000000
_cell_angle_gamma   90.00000000
_symmetry_Int_Tables_number   1
_chemical_formula_structural   LiF
_chemical_formula_sum   'Li24 F24'
_cell_volume   460.56362844
_cell_formula_units_Z   24
loop_
 _symmetry_equiv_pos_site_id
 _symmetry_equiv_pos_as_xyz
  1  'x, y, z'
loop_
 _atom_site_type_symbol
 _atom_site_label
 _atom_site_symmetry_multiplicity
 _atom_site_fract_x
 _atom_site_fract_y
 _atom_site_fract_z
 _atom_site_occupancy
  F  F0  1  0.10128602  0.35928078  0.59475445  1
  F  F1  1  0.39871398  0.64071922  0.09475445  1
  F  F2  1  0.89871398  0.85928078  0.40524555  1
  F  F3  1  0.60128602  0.14071922  0.90524555  1
  F  F4  1  0.89871398  0.64071922  0.40524555  1
  F  F5  1  0.60128602  0.35928078  0.90524555  1
  F  F6  1  0.10128602  0.14071922  0.59475445  1
  F  F7  1  0.39871398  0.85928078  0.09475445  1
  F  F8  1  0.20439201  0.68817121  0.92698372  1
  F  F9  1  0.29560799  0.31182879  0.42698372  1
  F  F10  1  0.79560799  0.18817121  0.07301628  1
  F  F11  1  0.70439201  0.81182879  0.57301628  1
  F  F12  1  0.79560799  0.31182879  0.07301628  1
  F  F13  1  0.70439201  0.68817121  0.57301628  1
  F  F14  1  0.20439201  0.81182879  0.92698372  1
  F  F15  1  0.29560799  0.18817121  0.42698372  1
  F  F16  1  0.00000000  0.00000000  0.50000000  1
  F  F17  1  0.50000000  0.00000000  0.00000000  1
  F  F18  1  0.00000000  0.50000000  0.50000000  1
  F  F19  1  0.50000000  0.50000000  0.00000000  1
  F  F20  1  0.01827959  0.25000000  0.66698350  1
  F  F21  1  0.48172041  0.75000000  0.16698350  1
  F  F22  1  0.98172041  0.75000000  0.33301650  1
  F  F23  1  0.51827959  0.25000000  0.83301650  1
  Li  Li24  1  0.14910462  0.25000000  0.82361229  1
  Li  Li25  1  0.35089538  0.75000000  0.32361229  1
  Li  Li26  1  0.85089538  0.75000000  0.17638771  1
  Li  Li27  1  0.64910462  0.25000000  0.67638771  1
  Li  Li28  1  0.83593469  0.06646287  0.54571592  1
  Li  Li29  1  -0.33593469  -0.06646287  1.04571592  1
  Li  Li30  1  -0.83593469  0.56646287  -0.54571592  1
  Li  Li31  1  1.33593469  0.43353713  -0.04571592  1
  Li  Li32  1  -0.83593469  -0.06646287  -0.54571592  1
  Li  Li33  1  1.33593469  0.06646287  -0.04571592  1
  Li  Li34  1  0.83593469  0.43353713  0.54571592  1
  Li  Li35  1  -0.33593469  0.56646287  1.04571592  1
  Li  Li36  1  0.00000000  0.00000000  0.00000000  1
  Li  Li37  1  0.50000000  0.00000000  0.50000000  1
  Li  Li38  1  0.00000000  0.50000000  0.00000000  1
  Li  Li39  1  0.50000000  0.50000000  0.50000000  1
  Li  Li40  1  0.91936323  0.25000000  0.91269985  1
  Li  Li41  1  0.58063677  0.75000000  0.41269985  1
  Li  Li42  1  0.08063677  0.75000000  0.08730015  1
  Li  Li43  1  0.41936323  0.25000000  0.58730015  1
  Li  Li44  1  0.72855598  0.25000000  0.90227680  1
  Li  Li45  1  0.77144402  0.75000000  0.40227680  1
  Li  Li46  1  0.27144402  0.75000000  0.09772320  1
  Li  Li47  1  0.22855598  0.25000000  0.59772320  1
