# generated using pymatgen
data_LiF
_symmetry_space_group_name_H-M   'P 1'
_cell_length_a   8.26875677
_cell_length_b   8.98137367
_cell_length_c   10.86369197
_cell_angle_alpha   90.00000000
_cell_angle_beta   90.00000000
_cell_angle_gamma   90.00000000
_symmetry_Int_Tables_number   1
_chemical_formula_structural   LiF
_chemical_formula_sum   'Li24 F24'
_cell_volume   806.78984944
_cell_formula_units_Z   24
loop_
 _symmetry_equiv_pos_site_id
 _symmetry_equiv_pos_as_xyz
  1  'x, y, z'
loop_
 _atom_site_type_symbol
 _atom_site_label
 _atom_site_symmetry_multiplicity
 _atom_site_fract_x
 _atom_site_fract_y
 _atom_site_fract_z
 _atom_site_occupancy
  F  F0  1  0.11499927  0.11237210  0.83415206  1
  F  F1  1  0.38500073  0.88762790  0.33415206  1
  F  F2  1  0.88500073  0.61237210  0.16584794  1
  F  F3  1  0.61499927  0.38762790  0.66584794  1
  F  F4  1  0.88500073  0.88762790  0.16584794  1
  F  F5  1  0.61499927  0.11237210  0.66584794  1
  F  F6  1  0.11499927  0.38762790  0.83415206  1
  F  F7  1  0.38500073  0.61237210  0.33415206  1
  F  F8  1  0.35975167  0.57312722  0.82974059  1
  F  F9  1  0.14024833  0.42687278  0.32974059  1
  F  F10  1  0.64024833  0.07312722  0.17025941  1
  F  F11  1  0.85975167  0.92687278  0.67025941  1
  F  F12  1  0.64024833  0.42687278  0.17025941  1
  F  F13  1  0.85975167  0.57312722  0.67025941  1
  F  F14  1  0.35975167  0.92687278  0.82974059  1
  F  F15  1  0.14024833  0.07312722  0.32974059  1
  F  F16  1  0.48235930  0.53269392  0.92513204  1
  F  F17  1  0.01764070  0.46730608  0.42513204  1
  F  F18  1  0.51764070  0.03269392  0.07486796  1
  F  F19  1  0.98235930  0.96730608  0.57486796  1
  F  F20  1  0.51764070  0.46730608  0.07486796  1
  F  F21  1  0.98235930  0.53269392  0.57486796  1
  F  F22  1  0.48235930  0.96730608  0.92513204  1
  F  F23  1  0.01764070  0.03269392  0.42513204  1
  Li  Li24  1  0.00000000  0.00000000  0.00000000  1
  Li  Li25  1  0.50000000  0.00000000  0.50000000  1
  Li  Li26  1  0.00000000  0.50000000  -0.00000000  1
  Li  Li27  1  0.50000000  0.50000000  0.50000000  1
  Li  Li28  1  0.20055691  0.07638110  0.71816626  1
  Li  Li29  1  0.29944309  -0.07638110  1.21816626  1
  Li  Li30  1  -0.20055691  0.57638110  -0.71816626  1
  Li  Li31  1  0.70055691  0.42361890  -0.21816626  1
  Li  Li32  1  -0.20055691  -0.07638110  -0.71816626  1
  Li  Li33  1  0.70055691  0.07638110  -0.21816626  1
  Li  Li34  1  0.20055691  0.42361890  0.71816626  1
  Li  Li35  1  0.29944309  0.57638110  1.21816626  1
  Li  Li36  1  0.77263764  0.50076336  0.44679946  1
  Li  Li37  1  0.72736236  0.49923664  0.94679946  1
  Li  Li38  1  0.22736236  0.00076336  0.55320054  1
  Li  Li39  1  0.27263764  0.99923664  0.05320054  1
  Li  Li40  1  0.22736236  0.49923664  0.55320054  1
  Li  Li41  1  0.27263764  0.50076336  0.05320054  1
  Li  Li42  1  0.77263764  0.99923664  0.44679946  1
  Li  Li43  1  0.72736236  0.00076336  0.94679946  1
  Li  Li44  1  0.32814232  0.25000000  0.14930271  1
  Li  Li45  1  0.17185768  0.75000000  0.64930271  1
  Li  Li46  1  0.67185768  0.75000000  0.85069729  1
  Li  Li47  1  0.82814232  0.25000000  0.35069729  1
