# generated using pymatgen
data_Li2YP3Se2
_symmetry_space_group_name_H-M   'P 1'
_cell_length_a   5.37615345
_cell_length_b   5.59614615
_cell_length_c   7.39838454
_cell_angle_alpha   94.62636455
_cell_angle_beta   100.07526018
_cell_angle_gamma   108.58226768
_symmetry_Int_Tables_number   1
_chemical_formula_structural   Li2YP3Se2
_chemical_formula_sum   'Li2 Y1 P3 Se2'
_cell_volume   205.49737601
_cell_formula_units_Z   1
loop_
 _symmetry_equiv_pos_site_id
 _symmetry_equiv_pos_as_xyz
  1  'x, y, z'
loop_
 _atom_site_type_symbol
 _atom_site_label
 _atom_site_symmetry_multiplicity
 _atom_site_fract_x
 _atom_site_fract_y
 _atom_site_fract_z
 _atom_site_occupancy
  Se  Se0  1  0.00000000  0.00000000  0.00000000  1
  Se  Se1  1  0.33300000  0.66700000  0.25000000  1
  P  P2  1  0.66700000  0.33300000  0.50000000  1
  P  P3  1  0.00000000  0.00000000  0.75000000  1
  P  P4  1  0.12067805  0.30413864  0.60840848  1
  Li  Li5  1  0.79282719  0.97125276  0.40098398  1
  Li  Li6  1  0.73134302  0.55439508  0.45591261  1
  Y  Y7  1  0.28978738  0.69751218  0.43344859  1
