# generated using pymatgen
data_LiY2Te4P3
_symmetry_space_group_name_H-M   'P 1'
_cell_length_a   5.21827623
_cell_length_b   5.40725765
_cell_length_c   7.26295815
_cell_angle_alpha   94.53390564
_cell_angle_beta   99.87390390
_cell_angle_gamma   108.21089699
_symmetry_Int_Tables_number   1
_chemical_formula_structural   LiY2Te4P3
_chemical_formula_sum   'Li1 Y2 Te4 P3'
_cell_volume   189.85137619
_cell_formula_units_Z   1
loop_
 _symmetry_equiv_pos_site_id
 _symmetry_equiv_pos_as_xyz
  1  'x, y, z'
loop_
 _atom_site_type_symbol
 _atom_site_label
 _atom_site_symmetry_multiplicity
 _atom_site_fract_x
 _atom_site_fract_y
 _atom_site_fract_z
 _atom_site_occupancy
  Te  Te0  1  0.00000000  0.00000000  0.00000000  1
  Te  Te1  1  0.50000000  0.50000000  0.50000000  1
  Te  Te2  1  0.50000000  0.50000000  0.00000000  1
  Te  Te3  1  0.50000000  0.00000000  0.50000000  1
  Y  Y4  1  0.00000000  0.50000000  0.50000000  1
  Y  Y5  1  0.87142379  0.94080244  0.36362225  1
  P  P6  1  0.57847702  0.33256422  0.16600239  1
  P  P7  1  0.74072173  0.28347874  0.90954253  1
  P  P8  1  0.64808679  0.60204985  0.80630687  1
  Li  Li9  1  0.16041220  0.66526335  0.72979460  1
