# generated using pymatgen
data_LiF
_symmetry_space_group_name_H-M   'P 1'
_cell_length_a   11.06444539
_cell_length_b   11.06444539
_cell_length_c   11.32498732
_cell_angle_alpha   90.00000000
_cell_angle_beta   90.00000000
_cell_angle_gamma   120.00000000
_symmetry_Int_Tables_number   1
_chemical_formula_structural   LiF
_chemical_formula_sum   'Li44 F44'
_cell_volume   1200.68104586
_cell_formula_units_Z   44
loop_
 _symmetry_equiv_pos_site_id
 _symmetry_equiv_pos_as_xyz
  1  'x, y, z'
loop_
 _atom_site_type_symbol
 _atom_site_label
 _atom_site_symmetry_multiplicity
 _atom_site_fract_x
 _atom_site_fract_y
 _atom_site_fract_z
 _atom_site_occupancy
  F  F0  1  0.37979238  0.45718390  0.61219126  1
  F  F1  1  0.54281610  0.92260849  0.61219126  1
  F  F2  1  0.07739151  0.62020762  0.61219126  1
  F  F3  1  0.54281610  0.62020762  0.38780874  1
  F  F4  1  0.07739151  0.45718390  0.38780874  1
  F  F5  1  0.37979238  0.92260849  0.38780874  1
  F  F6  1  0.05079509  0.48593129  0.50599820  1
  F  F7  1  0.51406871  0.56486380  0.50599820  1
  F  F8  1  0.43513620  0.94920491  0.50599820  1
  F  F9  1  0.51406871  0.94920491  0.49400180  1
  F  F10  1  0.43513620  0.48593129  0.49400180  1
  F  F11  1  0.05079509  0.56486380  0.49400180  1
  F  F12  1  0.76191841  0.13099999  0.67260392  1
  F  F13  1  0.86900001  0.63091841  0.67260392  1
  F  F14  1  0.36908159  0.23808159  0.67260392  1
  F  F15  1  0.86900001  0.23808159  0.32739608  1
  F  F16  1  0.36908159  0.13099999  0.32739608  1
  F  F17  1  0.76191841  0.63091841  0.32739608  1
  F  F18  1  0.66098174  0.15998106  0.05133122  1
  F  F19  1  0.84001894  0.50100068  0.05133122  1
  F  F20  1  0.49899932  0.33901826  0.05133122  1
  F  F21  1  0.84001894  0.33901826  0.94866878  1
  F  F22  1  0.49899932  0.15998106  0.94866878  1
  F  F23  1  0.66098174  0.50100068  0.94866878  1
  F  F24  1  0.92536479  0.61213152  0.48778171  1
  F  F25  1  0.38786848  0.31323328  0.48778171  1
  F  F26  1  0.68676672  0.07463521  0.48778171  1
  F  F27  1  0.38786848  0.07463521  0.51221829  1
  F  F28  1  0.68676672  0.61213152  0.51221829  1
  F  F29  1  0.92536479  0.31323328  0.51221829  1
  F  F30  1  0.62573518  0.75672466  0.00569907  1
  F  F31  1  0.24327534  0.86901051  0.00569907  1
  F  F32  1  0.13098949  0.37426482  0.00569907  1
  F  F33  1  0.24327534  0.37426482  0.99430093  1
  F  F34  1  0.13098949  0.75672466  0.99430093  1
  F  F35  1  0.62573518  0.86901051  0.99430093  1
  F  F36  1  0.63555169  0.01748063  0.72910116  1
  F  F37  1  0.98251937  0.61807106  0.72910116  1
  F  F38  1  0.38192894  0.36444831  0.72910116  1
  F  F39  1  0.98251937  0.36444831  0.27089884  1
  F  F40  1  0.38192894  0.01748063  0.27089884  1
  F  F41  1  0.63555169  0.61807106  0.27089884  1
  F  F42  1  0.33333333  0.66666667  0.85126057  1
  F  F43  1  0.33333333  0.66666667  0.14873943  1
  Li  Li44  1  0.92904153  0.07878120  0.73397093  1
  Li  Li45  1  -0.07878120  0.85026033  0.73397093  1
  Li  Li46  1  -0.85026033  -0.92904153  0.73397093  1
  Li  Li47  1  -0.07878120  -0.92904153  -0.73397093  1
  Li  Li48  1  -0.85026033  0.07878120  -0.73397093  1
  Li  Li49  1  0.92904153  0.85026033  -0.73397093  1
  Li  Li50  1  0.98289766  0.81817568  0.46476547  1
  Li  Li51  1  0.18182432  0.16472199  0.46476547  1
  Li  Li52  1  0.83527801  0.01710234  0.46476547  1
  Li  Li53  1  0.18182432  0.01710234  0.53523453  1
  Li  Li54  1  0.83527801  0.81817568  0.53523453  1
  Li  Li55  1  0.98289766  0.16472199  0.53523453  1
  Li  Li56  1  0.66666667  0.33333333  0.76555539  1
  Li  Li57  1  0.66666667  0.33333333  0.23444461  1
  Li  Li58  1  0.20911055  0.79341143  0.32686550  1
  Li  Li59  1  0.20658857  0.41569911  0.32686550  1
  Li  Li60  1  0.58430089  0.79088945  0.32686550  1
  Li  Li61  1  0.20658857  0.79088945  0.67313450  1
  Li  Li62  1  0.58430089  0.79341143  0.67313450  1
  Li  Li63  1  0.20911055  0.41569911  0.67313450  1
  Li  Li64  1  0.66666667  0.33333333  0.35346773  1
  Li  Li65  1  0.66666667  0.33333333  0.64653227  1
  Li  Li66  1  0.24002124  0.01629671  0.31728371  1
  Li  Li67  1  0.98370329  0.22372453  0.31728371  1
  Li  Li68  1  0.77627547  0.75997876  0.31728371  1
  Li  Li69  1  0.98370329  0.75997876  0.68271629  1
  Li  Li70  1  0.77627547  0.01629671  0.68271629  1
  Li  Li71  1  0.24002124  0.22372453  0.68271629  1
  Li  Li72  1  0.66666667  0.33333333  -0.00000000  1
  Li  Li73  1  0.00000000  0.00000000  0.00000000  1
  Li  Li74  1  0.66666667  0.33333333  0.50000000  1
  Li  Li75  1  0.19501096  0.80498904  0.50000000  1
  Li  Li76  1  0.19501096  0.39002192  0.50000000  1
  Li  Li77  1  0.60997808  0.80498904  0.50000000  1
  Li  Li78  1  0.79598384  0.18836741  0.93920791  1
  Li  Li79  1  0.81163259  0.60761643  0.93920791  1
  Li  Li80  1  0.39238357  0.20401616  0.93920791  1
  Li  Li81  1  0.81163259  0.20401616  0.06079209  1
  Li  Li82  1  0.39238357  0.18836741  0.06079209  1
  Li  Li83  1  0.79598384  0.60761643  0.06079209  1
  Li  Li84  1  0.33333333  0.66666667  -0.00000000  1
  Li  Li85  1  0.10192684  0.89807316  0.00000000  1
  Li  Li86  1  0.10192684  0.20385369  -0.00000000  1
  Li  Li87  1  0.79614631  0.89807316  -0.00000000  1
