# generated using pymatgen
data_LiF
_symmetry_space_group_name_H-M   'P 1'
_cell_length_a   5.13698339
_cell_length_b   5.13698339
_cell_length_c   10.44370922
_cell_angle_alpha   90.00000000
_cell_angle_beta   90.00000000
_cell_angle_gamma   90.00000000
_symmetry_Int_Tables_number   1
_chemical_formula_structural   LiF
_chemical_formula_sum   'Li9 F9'
_cell_volume   275.59484837
_cell_formula_units_Z   9
loop_
 _symmetry_equiv_pos_site_id
 _symmetry_equiv_pos_as_xyz
  1  'x, y, z'
loop_
 _atom_site_type_symbol
 _atom_site_label
 _atom_site_symmetry_multiplicity
 _atom_site_fract_x
 _atom_site_fract_y
 _atom_site_fract_z
 _atom_site_occupancy
  F  F0  1  0.36466834  0.50000000  -0.00000000  1
  F  F1  1  0.63533166  0.50000000  0.00000000  1
  F  F2  1  0.50000000  0.36466834  -0.00000000  1
  F  F3  1  0.50000000  0.63533166  0.00000000  1
  F  F4  1  0.00000000  0.00000000  0.72749352  1
  F  F5  1  0.00000000  0.00000000  0.27250648  1
  F  F6  1  0.00000000  0.50000000  0.00000000  1
  F  F7  1  0.50000000  0.00000000  0.00000000  1
  F  F8  1  0.50000000  0.50000000  0.00000000  1
  Li  Li9  1  0.69447550  0.69447550  0.86257971  1
  Li  Li10  1  -0.69447550  -0.69447550  0.86257971  1
  Li  Li11  1  -0.69447550  0.69447550  0.86257971  1
  Li  Li12  1  0.69447550  -0.69447550  0.86257971  1
  Li  Li13  1  -0.69447550  0.69447550  -0.86257971  1
  Li  Li14  1  0.69447550  -0.69447550  -0.86257971  1
  Li  Li15  1  0.69447550  0.69447550  -0.86257971  1
  Li  Li16  1  -0.69447550  -0.69447550  -0.86257971  1
  Li  Li17  1  0.00000000  0.00000000  0.50000000  1
