# generated using pymatgen
data_LiF
_symmetry_space_group_name_H-M   'P 1'
_cell_length_a   6.76556637
_cell_length_b   7.60795340
_cell_length_c   7.88645774
_cell_angle_alpha   90.00000000
_cell_angle_beta   90.00000000
_cell_angle_gamma   90.00000000
_symmetry_Int_Tables_number   1
_chemical_formula_structural   LiF
_chemical_formula_sum   'Li24 F24'
_cell_volume   405.93264951
_cell_formula_units_Z   24
loop_
 _symmetry_equiv_pos_site_id
 _symmetry_equiv_pos_as_xyz
  1  'x, y, z'
loop_
 _atom_site_type_symbol
 _atom_site_label
 _atom_site_symmetry_multiplicity
 _atom_site_fract_x
 _atom_site_fract_y
 _atom_site_fract_z
 _atom_site_occupancy
  F  F0  1  0.25503349  0.25000000  0.78884839  1
  F  F1  1  0.24496651  0.75000000  0.28884839  1
  F  F2  1  0.74496651  0.75000000  0.21115161  1
  F  F3  1  0.75503349  0.25000000  0.71115161  1
  F  F4  1  0.28740636  0.45992494  0.97114642  1
  F  F5  1  0.21259364  0.54007506  0.47114642  1
  F  F6  1  0.71259364  0.95992494  0.02885358  1
  F  F7  1  0.78740636  0.04007506  0.52885358  1
  F  F8  1  0.71259364  0.54007506  0.02885358  1
  F  F9  1  0.78740636  0.45992494  0.52885358  1
  F  F10  1  0.28740636  0.04007506  0.97114642  1
  F  F11  1  0.21259364  0.95992494  0.47114642  1
  F  F12  1  0.64995910  0.31877302  0.14242475  1
  F  F13  1  0.85004090  0.68122698  0.64242475  1
  F  F14  1  0.35004090  0.81877302  0.85757525  1
  F  F15  1  0.14995910  0.18122698  0.35757525  1
  F  F16  1  0.35004090  0.68122698  0.85757525  1
  F  F17  1  0.14995910  0.31877302  0.35757525  1
  F  F18  1  0.64995910  0.18122698  0.14242475  1
  F  F19  1  0.85004090  0.81877302  0.64242475  1
  F  F20  1  0.12983547  0.25000000  0.93080323  1
  F  F21  1  0.37016453  0.75000000  0.43080323  1
  F  F22  1  0.87016453  0.75000000  0.06919677  1
  F  F23  1  0.62983547  0.25000000  0.56919677  1
  Li  Li24  1  0.63966936  0.05860001  0.65791906  1
  Li  Li25  1  -0.13966936  -0.05860001  1.15791906  1
  Li  Li26  1  -0.63966936  0.55860001  -0.65791906  1
  Li  Li27  1  1.13966936  0.44139999  -0.15791906  1
  Li  Li28  1  -0.63966936  -0.05860001  -0.65791906  1
  Li  Li29  1  1.13966936  0.05860001  -0.15791906  1
  Li  Li30  1  0.63966936  0.44139999  0.65791906  1
  Li  Li31  1  -0.13966936  0.55860001  1.15791906  1
  Li  Li32  1  0.17663007  0.55337241  0.13446697  1
  Li  Li33  1  0.32336993  0.44662759  0.63446697  1
  Li  Li34  1  0.82336993  0.05337241  0.86553303  1
  Li  Li35  1  0.67663007  0.94662759  0.36553303  1
  Li  Li36  1  0.82336993  0.44662759  0.86553303  1
  Li  Li37  1  0.67663007  0.55337241  0.36553303  1
  Li  Li38  1  0.17663007  0.94662759  0.13446697  1
  Li  Li39  1  0.32336993  0.05337241  0.63446697  1
  Li  Li40  1  0.00000000  0.00000000  0.00000000  1
  Li  Li41  1  0.50000000  0.00000000  0.50000000  1
  Li  Li42  1  0.00000000  0.50000000  0.00000000  1
  Li  Li43  1  0.50000000  0.50000000  0.50000000  1
  Li  Li44  1  0.00000000  0.00000000  0.50000000  1
  Li  Li45  1  0.50000000  0.00000000  0.00000000  1
  Li  Li46  1  0.00000000  0.50000000  0.50000000  1
  Li  Li47  1  0.50000000  0.50000000  0.00000000  1
