# generated using pymatgen
data_LiF
_symmetry_space_group_name_H-M   'P 1'
_cell_length_a   3.98199843
_cell_length_b   10.12763204
_cell_length_c   11.13033706
_cell_angle_alpha   90.00000000
_cell_angle_beta   90.00000000
_cell_angle_gamma   90.00000000
_symmetry_Int_Tables_number   1
_chemical_formula_structural   LiF
_chemical_formula_sum   'Li20 F20'
_cell_volume   448.86662489
_cell_formula_units_Z   20
loop_
 _symmetry_equiv_pos_site_id
 _symmetry_equiv_pos_as_xyz
  1  'x, y, z'
loop_
 _atom_site_type_symbol
 _atom_site_label
 _atom_site_symmetry_multiplicity
 _atom_site_fract_x
 _atom_site_fract_y
 _atom_site_fract_z
 _atom_site_occupancy
  F  F0  1  0.00000000  0.00000000  0.15006322  1
  F  F1  1  0.50000000  0.50000000  0.34993678  1
  F  F2  1  0.00000000  0.00000000  0.84993678  1
  F  F3  1  0.50000000  0.50000000  0.65006322  1
  F  F4  1  0.55087216  0.32919703  0.87877968  1
  F  F5  1  -0.55087216  -0.32919703  0.87877968  1
  F  F6  1  -0.05087216  0.82919703  -0.37877968  1
  F  F7  1  1.05087216  0.17080297  -0.37877968  1
  F  F8  1  -0.55087216  -0.32919703  -0.87877968  1
  F  F9  1  0.55087216  0.32919703  -0.87877968  1
  F  F10  1  1.05087216  0.17080297  1.37877968  1
  F  F11  1  -0.05087216  0.82919703  1.37877968  1
  F  F12  1  0.48728922  0.55747124  0.24453968  1
  F  F13  1  0.51271078  0.44252876  0.24453968  1
  F  F14  1  0.01271078  0.05747124  0.25546032  1
  F  F15  1  0.98728922  0.94252876  0.25546032  1
  F  F16  1  0.51271078  0.44252876  0.75546032  1
  F  F17  1  0.48728922  0.55747124  0.75546032  1
  F  F18  1  0.98728922  0.94252876  0.74453968  1
  F  F19  1  0.01271078  0.05747124  0.74453968  1
  Li  Li20  1  0.00000000  0.00000000  0.50000000  1
  Li  Li21  1  0.50000000  0.50000000  0.00000000  1
  Li  Li22  1  0.00000000  0.50000000  0.00000000  1
  Li  Li23  1  0.50000000  0.00000000  0.50000000  1
  Li  Li24  1  0.70695860  0.81059658  0.87710615  1
  Li  Li25  1  0.29304140  0.18940342  0.87710615  1
  Li  Li26  1  0.79304140  0.31059658  0.62289385  1
  Li  Li27  1  0.20695860  0.68940342  0.62289385  1
  Li  Li28  1  0.29304140  0.18940342  0.12289385  1
  Li  Li29  1  0.70695860  0.81059658  0.12289385  1
  Li  Li30  1  0.20695860  0.68940342  0.37710615  1
  Li  Li31  1  0.79304140  0.31059658  0.37710615  1
  Li  Li32  1  0.31602395  0.31334224  0.00000000  1
  Li  Li33  1  0.68397605  0.68665776  0.00000000  1
  Li  Li34  1  0.18397605  0.81334224  0.50000000  1
  Li  Li35  1  0.81602395  0.18665776  0.50000000  1
  Li  Li36  1  0.00000000  0.00000000  0.67182620  1
  Li  Li37  1  0.50000000  0.50000000  0.82817380  1
  Li  Li38  1  0.00000000  0.00000000  0.32817380  1
  Li  Li39  1  0.50000000  0.50000000  0.17182620  1
