# generated using pymatgen
data_LiF
_symmetry_space_group_name_H-M   'P 1'
_cell_length_a   10.07146600
_cell_length_b   10.07146600
_cell_length_c   19.52692332
_cell_angle_alpha   90.00000000
_cell_angle_beta   90.00000000
_cell_angle_gamma   90.00000000
_symmetry_Int_Tables_number   1
_chemical_formula_structural   LiF
_chemical_formula_sum   'Li64 F64'
_cell_volume   1980.70228630
_cell_formula_units_Z   64
loop_
 _symmetry_equiv_pos_site_id
 _symmetry_equiv_pos_as_xyz
  1  'x, y, z'
loop_
 _atom_site_type_symbol
 _atom_site_label
 _atom_site_symmetry_multiplicity
 _atom_site_fract_x
 _atom_site_fract_y
 _atom_site_fract_z
 _atom_site_occupancy
  F  F0  1  0.00000000  0.25000000  0.37500000  1
  F  F1  1  0.00000000  0.75000000  0.62500000  1
  F  F2  1  0.50000000  0.25000000  0.62500000  1
  F  F3  1  0.50000000  0.75000000  0.37500000  1
  F  F4  1  0.50000000  0.75000000  0.87500000  1
  F  F5  1  0.50000000  0.25000000  0.12500000  1
  F  F6  1  0.00000000  0.75000000  0.12500000  1
  F  F7  1  0.00000000  0.25000000  0.87500000  1
  F  F8  1  0.00000000  0.25000000  0.12500000  1
  F  F9  1  0.00000000  0.75000000  0.37500000  1
  F  F10  1  0.00000000  0.75000000  0.87500000  1
  F  F11  1  0.00000000  0.25000000  0.62500000  1
  F  F12  1  0.50000000  0.75000000  0.62500000  1
  F  F13  1  0.50000000  0.25000000  0.87500000  1
  F  F14  1  0.50000000  0.25000000  0.37500000  1
  F  F15  1  0.50000000  0.75000000  0.12500000  1
  F  F16  1  0.00000000  0.00000000  0.00000000  1
  F  F17  1  0.50000000  0.00000000  0.50000000  1
  F  F18  1  0.25000000  0.75000000  0.25000000  1
  F  F19  1  0.25000000  0.25000000  0.75000000  1
  F  F20  1  0.50000000  0.00000000  0.00000000  1
  F  F21  1  0.00000000  0.00000000  0.50000000  1
  F  F22  1  0.25000000  0.75000000  0.75000000  1
  F  F23  1  0.25000000  0.25000000  0.25000000  1
  F  F24  1  0.50000000  0.50000000  0.50000000  1
  F  F25  1  0.00000000  0.50000000  0.00000000  1
  F  F26  1  0.75000000  0.25000000  0.75000000  1
  F  F27  1  0.75000000  0.75000000  0.25000000  1
  F  F28  1  0.00000000  0.50000000  0.50000000  1
  F  F29  1  0.50000000  0.50000000  0.00000000  1
  F  F30  1  0.75000000  0.25000000  0.25000000  1
  F  F31  1  0.75000000  0.75000000  0.75000000  1
  F  F32  1  0.76635076  0.98835732  0.42663940  1
  F  F33  1  -0.26635076  -0.98835732  0.92663940  1
  F  F34  1  -0.73835732  1.51635076  0.67663940  1
  F  F35  1  1.23835732  -0.51635076  1.17663940  1
  F  F36  1  -0.26635076  0.98835732  -0.42663940  1
  F  F37  1  0.76635076  -0.98835732  0.07336060  1
  F  F38  1  1.23835732  1.51635076  0.32336060  1
  F  F39  1  -0.73835732  -0.51635076  -0.17663940  1
  F  F40  1  -0.76635076  -0.98835732  -0.42663940  1
  F  F41  1  1.26635076  0.98835732  0.07336060  1
  F  F42  1  1.73835732  -0.51635076  0.32336060  1
  F  F43  1  -0.23835732  1.51635076  -0.17663940  1
  F  F44  1  1.26635076  -0.98835732  0.42663940  1
  F  F45  1  -0.76635076  0.98835732  0.92663940  1
  F  F46  1  -0.23835732  -0.51635076  0.67663940  1
  F  F47  1  1.73835732  1.51635076  1.17663940  1
  F  F48  1  1.26635076  1.48835732  0.92663940  1
  F  F49  1  0.23364924  -0.48835732  1.42663940  1
  F  F50  1  -0.23835732  2.01635076  1.17663940  1
  F  F51  1  1.73835732  -0.01635076  1.67663940  1
  F  F52  1  0.23364924  1.48835732  0.07336060  1
  F  F53  1  1.26635076  -0.48835732  0.57336060  1
  F  F54  1  1.73835732  2.01635076  0.82336060  1
  F  F55  1  -0.23835732  -0.01635076  0.32336060  1
  F  F56  1  -0.26635076  -0.48835732  0.07336060  1
  F  F57  1  1.76635076  1.48835732  0.57336060  1
  F  F58  1  2.23835732  -0.01635076  0.82336060  1
  F  F59  1  0.26164268  2.01635076  0.32336060  1
  F  F60  1  1.76635076  -0.48835732  0.92663940  1
  F  F61  1  -0.26635076  1.48835732  1.42663940  1
  F  F62  1  0.26164268  -0.01635076  1.17663940  1
  F  F63  1  2.23835732  2.01635076  1.67663940  1
  Li  Li64  1  0.08403583  0.00916777  0.20365511  1
  Li  Li65  1  0.41596417  0.99083223  0.70365511  1
  Li  Li66  1  0.24083223  0.83403583  0.45365511  1
  Li  Li67  1  0.25916777  0.16596417  0.95365511  1
  Li  Li68  1  0.41596417  0.00916777  0.79634489  1
  Li  Li69  1  0.08403583  0.99083223  0.29634489  1
  Li  Li70  1  0.25916777  0.83403583  0.54634489  1
  Li  Li71  1  0.24083223  0.16596417  0.04634489  1
  Li  Li72  1  0.91596417  0.99083223  0.79634489  1
  Li  Li73  1  0.58403583  0.00916777  0.29634489  1
  Li  Li74  1  0.75916777  0.16596417  0.54634489  1
  Li  Li75  1  0.74083223  0.83403583  0.04634489  1
  Li  Li76  1  0.58403583  0.99083223  0.20365511  1
  Li  Li77  1  0.91596417  0.00916777  0.70365511  1
  Li  Li78  1  0.74083223  0.16596417  0.45365511  1
  Li  Li79  1  0.75916777  0.83403583  0.95365511  1
  Li  Li80  1  0.58403583  0.50916777  0.70365511  1
  Li  Li81  1  0.91596417  0.49083223  0.20365511  1
  Li  Li82  1  0.74083223  0.33403583  0.95365511  1
  Li  Li83  1  0.75916777  0.66596417  0.45365511  1
  Li  Li84  1  0.91596417  0.50916777  0.29634489  1
  Li  Li85  1  0.58403583  0.49083223  0.79634489  1
  Li  Li86  1  0.75916777  0.33403583  0.04634489  1
  Li  Li87  1  0.74083223  0.66596417  0.54634489  1
  Li  Li88  1  0.41596417  0.49083223  0.29634489  1
  Li  Li89  1  0.08403583  0.50916777  0.79634489  1
  Li  Li90  1  0.25916777  0.66596417  0.04634489  1
  Li  Li91  1  0.24083223  0.33403583  0.54634489  1
  Li  Li92  1  0.08403583  0.49083223  0.70365511  1
  Li  Li93  1  0.41596417  0.50916777  0.20365511  1
  Li  Li94  1  0.24083223  0.66596417  0.95365511  1
  Li  Li95  1  0.25916777  0.33403583  0.45365511  1
  Li  Li96  1  0.06870495  0.08585513  0.98975597  1
  Li  Li97  1  0.43129505  0.91414487  0.48975597  1
  Li  Li98  1  0.16414487  0.81870495  0.23975597  1
  Li  Li99  1  0.33585513  0.18129505  0.73975597  1
  Li  Li100  1  0.43129505  0.08585513  0.01024403  1
  Li  Li101  1  0.06870495  0.91414487  0.51024403  1
  Li  Li102  1  0.33585513  0.81870495  0.76024403  1
  Li  Li103  1  0.16414487  0.18129505  0.26024403  1
  Li  Li104  1  0.93129505  0.91414487  0.01024403  1
  Li  Li105  1  0.56870495  0.08585513  0.51024403  1
  Li  Li106  1  0.83585513  0.18129505  0.76024403  1
  Li  Li107  1  0.66414487  0.81870495  0.26024403  1
  Li  Li108  1  0.56870495  0.91414487  0.98975597  1
  Li  Li109  1  0.93129505  0.08585513  0.48975597  1
  Li  Li110  1  0.66414487  0.18129505  0.23975597  1
  Li  Li111  1  0.83585513  0.81870495  0.73975597  1
  Li  Li112  1  0.56870495  0.58585513  0.48975597  1
  Li  Li113  1  0.93129505  0.41414487  0.98975597  1
  Li  Li114  1  0.66414487  0.31870495  0.73975597  1
  Li  Li115  1  0.83585513  0.68129505  0.23975597  1
  Li  Li116  1  0.93129505  0.58585513  0.51024403  1
  Li  Li117  1  0.56870495  0.41414487  0.01024403  1
  Li  Li118  1  0.83585513  0.31870495  0.26024403  1
  Li  Li119  1  0.66414487  0.68129505  0.76024403  1
  Li  Li120  1  0.43129505  0.41414487  0.51024403  1
  Li  Li121  1  0.06870495  0.58585513  0.01024403  1
  Li  Li122  1  0.33585513  0.68129505  0.26024403  1
  Li  Li123  1  0.16414487  0.31870495  0.76024403  1
  Li  Li124  1  0.06870495  0.41414487  0.48975597  1
  Li  Li125  1  0.43129505  0.58585513  0.98975597  1
  Li  Li126  1  0.16414487  0.68129505  0.73975597  1
  Li  Li127  1  0.33585513  0.31870495  0.23975597  1
