# generated using pymatgen
data_LiF
_symmetry_space_group_name_H-M   'P 1'
_cell_length_a   6.37034683
_cell_length_b   5.56355154
_cell_length_c   8.91694219
_cell_angle_alpha   90.00000000
_cell_angle_beta   90.00000000
_cell_angle_gamma   90.00000000
_symmetry_Int_Tables_number   1
_chemical_formula_structural   LiF
_chemical_formula_sum   'Li12 F12'
_cell_volume   316.03206137
_cell_formula_units_Z   12
loop_
 _symmetry_equiv_pos_site_id
 _symmetry_equiv_pos_as_xyz
  1  'x, y, z'
loop_
 _atom_site_type_symbol
 _atom_site_label
 _atom_site_symmetry_multiplicity
 _atom_site_fract_x
 _atom_site_fract_y
 _atom_site_fract_z
 _atom_site_occupancy
  F  F0  1  0.18404530  0.25000000  0.57388112  1
  F  F1  1  0.31595470  0.75000000  0.07388112  1
  F  F2  1  0.81595470  0.75000000  0.42611888  1
  F  F3  1  0.68404530  0.25000000  0.92611888  1
  F  F4  1  0.40425480  0.66902656  0.81325948  1
  F  F5  1  0.09574520  0.33097344  0.31325948  1
  F  F6  1  0.59574520  0.16902656  0.18674052  1
  F  F7  1  0.90425480  0.83097344  0.68674052  1
  F  F8  1  0.59574520  0.33097344  0.18674052  1
  F  F9  1  0.90425480  0.66902656  0.68674052  1
  F  F10  1  0.40425480  0.83097344  0.81325948  1
  F  F11  1  0.09574520  0.16902656  0.31325948  1
  Li  Li12  1  0.15058430  0.88189347  0.45004311  1
  Li  Li13  1  0.34941570  -0.88189347  0.95004311  1
  Li  Li14  1  -0.15058430  1.38189347  -0.45004311  1
  Li  Li15  1  0.65058430  -0.38189347  0.04995689  1
  Li  Li16  1  -0.15058430  -0.88189347  -0.45004311  1
  Li  Li17  1  0.65058430  0.88189347  0.04995689  1
  Li  Li18  1  0.15058430  -0.38189347  0.45004311  1
  Li  Li19  1  0.34941570  1.38189347  0.95004311  1
  Li  Li20  1  0.00000000  0.00000000  0.00000000  1
  Li  Li21  1  0.50000000  0.00000000  0.50000000  1
  Li  Li22  1  0.00000000  0.50000000  0.00000000  1
  Li  Li23  1  0.50000000  0.50000000  0.50000000  1
