# generated using pymatgen
data_LiF
_symmetry_space_group_name_H-M   'P 1'
_cell_length_a   6.23687644
_cell_length_b   7.34447174
_cell_length_c   8.89779808
_cell_angle_alpha   90.00000000
_cell_angle_beta   90.00000000
_cell_angle_gamma   90.00000000
_symmetry_Int_Tables_number   1
_chemical_formula_structural   LiF
_chemical_formula_sum   'Li24 F24'
_cell_volume   407.57754596
_cell_formula_units_Z   24
loop_
 _symmetry_equiv_pos_site_id
 _symmetry_equiv_pos_as_xyz
  1  'x, y, z'
loop_
 _atom_site_type_symbol
 _atom_site_label
 _atom_site_symmetry_multiplicity
 _atom_site_fract_x
 _atom_site_fract_y
 _atom_site_fract_z
 _atom_site_occupancy
  F  F0  1  0.75951229  0.15294300  0.00646966  1
  F  F1  1  0.74048771  0.84705700  0.50646966  1
  F  F2  1  0.24048771  0.65294300  0.99353034  1
  F  F3  1  0.25951229  0.34705700  0.49353034  1
  F  F4  1  0.24048771  0.84705700  0.99353034  1
  F  F5  1  0.25951229  0.15294300  0.49353034  1
  F  F6  1  0.75951229  0.34705700  0.00646966  1
  F  F7  1  0.74048771  0.65294300  0.50646966  1
  F  F8  1  0.42058447  0.68728677  0.68849019  1
  F  F9  1  0.07941553  0.31271323  0.18849019  1
  F  F10  1  0.57941553  0.18728677  0.31150981  1
  F  F11  1  0.92058447  0.81271323  0.81150981  1
  F  F12  1  0.57941553  0.31271323  0.31150981  1
  F  F13  1  0.92058447  0.68728677  0.81150981  1
  F  F14  1  0.42058447  0.81271323  0.68849019  1
  F  F15  1  0.07941553  0.18728677  0.18849019  1
  F  F16  1  0.76713346  0.25000000  0.77223111  1
  F  F17  1  0.73286654  0.75000000  0.27223111  1
  F  F18  1  0.23286654  0.75000000  0.22776889  1
  F  F19  1  0.26713346  0.25000000  0.72776889  1
  F  F20  1  0.48905859  0.25000000  0.94446594  1
  F  F21  1  0.01094141  0.75000000  0.44446594  1
  F  F22  1  0.51094141  0.75000000  0.05553406  1
  F  F23  1  0.98905859  0.25000000  0.55553406  1
  Li  Li24  1  0.00000000  0.00000000  0.00000000  1
  Li  Li25  1  0.50000000  0.00000000  0.50000000  1
  Li  Li26  1  0.00000000  0.50000000  0.00000000  1
  Li  Li27  1  0.50000000  0.50000000  0.50000000  1
  Li  Li28  1  0.36187480  0.34682339  0.62901329  1
  Li  Li29  1  0.13812520  -0.34682339  1.12901329  1
  Li  Li30  1  -0.36187480  0.84682339  -0.62901329  1
  Li  Li31  1  0.86187480  0.15317661  -0.12901329  1
  Li  Li32  1  -0.36187480  -0.34682339  -0.62901329  1
  Li  Li33  1  0.86187480  0.34682339  -0.12901329  1
  Li  Li34  1  0.36187480  0.15317661  0.62901329  1
  Li  Li35  1  0.13812520  0.84682339  1.12901329  1
  Li  Li36  1  0.87033438  0.40918620  0.37275483  1
  Li  Li37  1  0.62966562  0.59081380  0.87275483  1
  Li  Li38  1  0.12966562  0.90918620  0.62724517  1
  Li  Li39  1  0.37033438  0.09081380  0.12724517  1
  Li  Li40  1  0.12966562  0.59081380  0.62724517  1
  Li  Li41  1  0.37033438  0.40918620  0.12724517  1
  Li  Li42  1  0.87033438  0.09081380  0.37275483  1
  Li  Li43  1  0.62966562  0.90918620  0.87275483  1
  Li  Li44  1  0.00000000  0.00000000  0.50000000  1
  Li  Li45  1  0.50000000  0.00000000  0.00000000  1
  Li  Li46  1  0.00000000  0.50000000  0.50000000  1
  Li  Li47  1  0.50000000  0.50000000  0.00000000  1
