# generated using pymatgen
data_LiF
_symmetry_space_group_name_H-M   'P 1'
_cell_length_a   15.31798045
_cell_length_b   10.94392768
_cell_length_c   9.15873053
_cell_angle_alpha   90.00000000
_cell_angle_beta   90.00000000
_cell_angle_gamma   90.00000000
_symmetry_Int_Tables_number   1
_chemical_formula_structural   LiF
_chemical_formula_sum   'Li52 F52'
_cell_volume   1535.35923885
_cell_formula_units_Z   52
loop_
 _symmetry_equiv_pos_site_id
 _symmetry_equiv_pos_as_xyz
  1  'x, y, z'
loop_
 _atom_site_type_symbol
 _atom_site_label
 _atom_site_symmetry_multiplicity
 _atom_site_fract_x
 _atom_site_fract_y
 _atom_site_fract_z
 _atom_site_occupancy
  F  F0  1  0.19361542  0.35121167  0.23631091  1
  F  F1  1  0.30638458  0.64878833  0.73631091  1
  F  F2  1  0.80638458  0.85121167  0.76368909  1
  F  F3  1  0.69361542  0.14878833  0.26368909  1
  F  F4  1  0.80638458  0.64878833  0.76368909  1
  F  F5  1  0.69361542  0.35121167  0.26368909  1
  F  F6  1  0.19361542  0.14878833  0.23631091  1
  F  F7  1  0.30638458  0.85121167  0.73631091  1
  F  F8  1  0.87759487  0.79554274  0.37250848  1
  F  F9  1  0.62240513  0.20445726  0.87250848  1
  F  F10  1  0.12240513  0.29554274  0.62749152  1
  F  F11  1  0.37759487  0.70445726  0.12749152  1
  F  F12  1  0.12240513  0.20445726  0.62749152  1
  F  F13  1  0.37759487  0.79554274  0.12749152  1
  F  F14  1  0.87759487  0.70445726  0.37250848  1
  F  F15  1  0.62240513  0.29554274  0.87250848  1
  F  F16  1  0.79338698  0.72183237  0.22288087  1
  F  F17  1  0.70661302  0.27816763  0.72288087  1
  F  F18  1  0.20661302  0.22183237  0.77711913  1
  F  F19  1  0.29338698  0.77816763  0.27711913  1
  F  F20  1  0.20661302  0.27816763  0.77711913  1
  F  F21  1  0.29338698  0.72183237  0.27711913  1
  F  F22  1  0.79338698  0.77816763  0.22288087  1
  F  F23  1  0.70661302  0.22183237  0.72288087  1
  F  F24  1  0.05719313  0.25000000  0.19619660  1
  F  F25  1  0.44280687  0.75000000  0.69619660  1
  F  F26  1  0.94280687  0.75000000  0.80380340  1
  F  F27  1  0.55719313  0.25000000  0.30380340  1
  F  F28  1  0.48748707  0.32424866  0.79354258  1
  F  F29  1  0.01251293  0.67575134  0.29354258  1
  F  F30  1  0.51251293  0.82424866  0.20645742  1
  F  F31  1  0.98748707  0.17575134  0.70645742  1
  F  F32  1  0.51251293  0.67575134  0.20645742  1
  F  F33  1  0.98748707  0.32424866  0.70645742  1
  F  F34  1  0.48748707  0.17575134  0.79354258  1
  F  F35  1  0.01251293  0.82424866  0.29354258  1
  F  F36  1  0.92183193  0.60227059  0.88307842  1
  F  F37  1  0.57816807  0.39772941  0.38307842  1
  F  F38  1  0.07816807  0.10227059  0.11692158  1
  F  F39  1  0.42183193  0.89772941  0.61692158  1
  F  F40  1  0.07816807  0.39772941  0.11692158  1
  F  F41  1  0.42183193  0.60227059  0.61692158  1
  F  F42  1  0.92183193  0.89772941  0.88307842  1
  F  F43  1  0.57816807  0.10227059  0.38307842  1
  F  F44  1  0.77022597  0.25000000  0.20012015  1
  F  F45  1  0.72977403  0.75000000  0.70012015  1
  F  F46  1  0.22977403  0.75000000  0.79987985  1
  F  F47  1  0.27022597  0.25000000  0.29987985  1
  F  F48  1  0.00000000  0.00000000  0.50000000  1
  F  F49  1  0.50000000  0.00000000  0.00000000  1
  F  F50  1  0.00000000  0.50000000  0.50000000  1
  F  F51  1  0.50000000  0.50000000  0.00000000  1
  Li  Li52  1  0.47678885  0.08113900  0.97758575  1
  Li  Li53  1  0.02321115  -0.08113900  1.47758575  1
  Li  Li54  1  -0.47678885  0.58113900  -0.97758575  1
  Li  Li55  1  0.97678885  0.41886100  -0.47758575  1
  Li  Li56  1  -0.47678885  -0.08113900  -0.97758575  1
  Li  Li57  1  0.97678885  0.08113900  -0.47758575  1
  Li  Li58  1  0.47678885  0.41886100  0.97758575  1
  Li  Li59  1  0.02321115  0.58113900  1.47758575  1
  Li  Li60  1  0.40449790  0.25000000  0.84302289  1
  Li  Li61  1  0.09550210  0.75000000  0.34302289  1
  Li  Li62  1  0.59550210  0.75000000  0.15697711  1
  Li  Li63  1  0.90449790  0.25000000  0.65697711  1
  Li  Li64  1  0.70752813  0.25000000  0.18869267  1
  Li  Li65  1  0.79247187  0.75000000  0.68869267  1
  Li  Li66  1  0.29247187  0.75000000  0.81130733  1
  Li  Li67  1  0.20752813  0.25000000  0.31130733  1
  Li  Li68  1  0.54492120  0.85229639  0.64044396  1
  Li  Li69  1  0.95507880  0.14770361  0.14044396  1
  Li  Li70  1  0.45507880  0.35229639  0.35955604  1
  Li  Li71  1  0.04492120  0.64770361  0.85955604  1
  Li  Li72  1  0.45507880  0.14770361  0.35955604  1
  Li  Li73  1  0.04492120  0.85229639  0.85955604  1
  Li  Li74  1  0.54492120  0.64770361  0.64044396  1
  Li  Li75  1  0.95507880  0.35229639  0.14044396  1
  Li  Li76  1  0.75733852  0.62038864  0.95604061  1
  Li  Li77  1  0.74266148  0.37961136  0.45604061  1
  Li  Li78  1  0.24266148  0.12038864  0.04395939  1
  Li  Li79  1  0.25733852  0.87961136  0.54395939  1
  Li  Li80  1  0.24266148  0.37961136  0.04395939  1
  Li  Li81  1  0.25733852  0.62038864  0.54395939  1
  Li  Li82  1  0.75733852  0.87961136  0.95604061  1
  Li  Li83  1  0.74266148  0.12038864  0.45604061  1
  Li  Li84  1  0.76786961  0.25000000  0.08448322  1
  Li  Li85  1  0.73213039  0.75000000  0.58448322  1
  Li  Li86  1  0.23213039  0.75000000  0.91551678  1
  Li  Li87  1  0.26786961  0.25000000  0.41551678  1
  Li  Li88  1  0.00000000  0.00000000  0.00000000  1
  Li  Li89  1  0.50000000  0.00000000  0.50000000  1
  Li  Li90  1  0.00000000  0.50000000  0.00000000  1
  Li  Li91  1  0.50000000  0.50000000  0.50000000  1
  Li  Li92  1  0.02516749  0.85099508  0.07158835  1
  Li  Li93  1  0.47483251  0.14900492  0.57158835  1
  Li  Li94  1  0.97483251  0.35099508  0.92841165  1
  Li  Li95  1  0.52516749  0.64900492  0.42841165  1
  Li  Li96  1  0.97483251  0.14900492  0.92841165  1
  Li  Li97  1  0.52516749  0.85099508  0.42841165  1
  Li  Li98  1  0.02516749  0.64900492  0.07158835  1
  Li  Li99  1  0.47483251  0.35099508  0.57158835  1
  Li  Li100  1  0.67456516  0.25000000  0.35783665  1
  Li  Li101  1  0.82543484  0.75000000  0.85783665  1
  Li  Li102  1  0.32543484  0.75000000  0.64216335  1
  Li  Li103  1  0.17456516  0.25000000  0.14216335  1
