# generated using pymatgen
data_Li2YTe4P3
_symmetry_space_group_name_H-M   'P 1'
_cell_length_a   4.72248376
_cell_length_b   4.91411433
_cell_length_c   7.14003701
_cell_angle_alpha   95.82210256
_cell_angle_beta   102.67932897
_cell_angle_gamma   113.38507201
_symmetry_Int_Tables_number   1
_chemical_formula_structural   Li2YTe4P3
_chemical_formula_sum   'Li2 Y1 Te4 P3'
_cell_volume   145.05126453
_cell_formula_units_Z   1
loop_
 _symmetry_equiv_pos_site_id
 _symmetry_equiv_pos_as_xyz
  1  'x, y, z'
loop_
 _atom_site_type_symbol
 _atom_site_label
 _atom_site_symmetry_multiplicity
 _atom_site_fract_x
 _atom_site_fract_y
 _atom_site_fract_z
 _atom_site_occupancy
  Te  Te0  1  0.00000000  0.00000000  0.00000000  1
  Te  Te1  1  0.50000000  0.50000000  0.50000000  1
  Te  Te2  1  0.50000000  0.50000000  0.00000000  1
  Te  Te3  1  0.50000000  0.00000000  0.50000000  1
  P  P4  1  0.00000000  0.50000000  0.50000000  1
  P  P5  1  0.02339366  0.54221017  0.43974906  1
  P  P6  1  0.48947254  0.39338041  0.90568975  1
  Li  Li7  1  0.27745027  0.34930106  0.34718996  1
  Li  Li8  1  0.46185359  0.62237238  0.01825637  1
  Y  Y9  1  0.41430974  0.55778065  0.51131920  1
