# generated using pymatgen
data_LiCaF3
_symmetry_space_group_name_H-M   'P 1'
_cell_length_a   9.57399099
_cell_length_b   9.57399099
_cell_length_c   18.21215029
_cell_angle_alpha   90.00000000
_cell_angle_beta   90.00000000
_cell_angle_gamma   120.00000000
_symmetry_Int_Tables_number   1
_chemical_formula_structural   LiCaF3
_chemical_formula_sum   'Li18 Ca18 F54'
_cell_volume   1445.69901857
_cell_formula_units_Z   18
loop_
 _symmetry_equiv_pos_site_id
 _symmetry_equiv_pos_as_xyz
  1  'x, y, z'
loop_
 _atom_site_type_symbol
 _atom_site_label
 _atom_site_symmetry_multiplicity
 _atom_site_fract_x
 _atom_site_fract_y
 _atom_site_fract_z
 _atom_site_occupancy
  Ca  Ca0  1  0.50000000  0.00000000  0.00000000  1
  Ca  Ca1  1  0.00000000  0.50000000  0.00000000  1
  Ca  Ca2  1  0.50000000  0.50000000  0.00000000  1
  Ca  Ca3  1  0.00000000  0.50000000  0.50000000  1
  Ca  Ca4  1  0.50000000  0.00000000  0.50000000  1
  Ca  Ca5  1  0.50000000  0.50000000  0.50000000  1
  Ca  Ca6  1  0.16666667  0.33333333  0.33333333  1
  Ca  Ca7  1  0.66666667  0.83333333  0.33333333  1
  Ca  Ca8  1  0.16666667  0.83333333  0.33333333  1
  Ca  Ca9  1  0.66666667  0.83333333  0.83333333  1
  Ca  Ca10  1  0.16666667  0.33333333  0.83333333  1
  Ca  Ca11  1  0.16666667  0.83333333  0.83333333  1
  Ca  Ca12  1  0.83333333  0.66666667  0.66666667  1
  Ca  Ca13  1  0.33333333  0.16666667  0.66666667  1
  Ca  Ca14  1  0.83333333  0.16666667  0.66666667  1
  Ca  Ca15  1  0.33333333  0.16666667  0.16666667  1
  Ca  Ca16  1  0.83333333  0.66666667  0.16666667  1
  Ca  Ca17  1  0.83333333  0.16666667  0.16666667  1
  F  F18  1  0.97643335  0.74571366  0.71018452  1
  F  F19  1  -0.74571366  0.23071969  0.71018452  1
  F  F20  1  -0.23071969  -0.97643335  0.71018452  1
  F  F21  1  0.74571366  0.97643335  -0.21018452  1
  F  F22  1  0.23071969  -0.74571366  -0.21018452  1
  F  F23  1  -0.97643335  -0.23071969  -0.21018452  1
  F  F24  1  -0.97643335  -0.74571366  -0.71018452  1
  F  F25  1  0.74571366  -0.23071969  -0.71018452  1
  F  F26  1  0.23071969  0.97643335  -0.71018452  1
  F  F27  1  -0.74571366  -0.97643335  1.21018452  1
  F  F28  1  -0.23071969  0.74571366  1.21018452  1
  F  F29  1  0.97643335  0.23071969  1.21018452  1
  F  F30  1  1.64310001  1.07904699  1.04351785  1
  F  F31  1  -0.07904699  0.56405302  1.04351785  1
  F  F32  1  0.43594698  -0.64310001  1.04351785  1
  F  F33  1  1.41238033  1.30976668  0.12314881  1
  F  F34  1  0.89738635  -0.41238033  0.12314881  1
  F  F35  1  -0.30976668  0.10261365  0.12314881  1
  F  F36  1  -0.30976668  -0.41238033  -0.37685119  1
  F  F37  1  1.41238033  0.10261365  -0.37685119  1
  F  F38  1  0.89738635  1.30976668  -0.37685119  1
  F  F39  1  -0.07904699  -0.64310001  1.54351785  1
  F  F40  1  0.43594698  1.07904699  1.54351785  1
  F  F41  1  1.64310001  0.56405302  1.54351785  1
  F  F42  1  1.30976668  1.41238033  1.37685119  1
  F  F43  1  -0.41238033  0.89738635  1.37685119  1
  F  F44  1  0.10261365  -0.30976668  1.37685119  1
  F  F45  1  1.07904699  1.64310001  0.45648215  1
  F  F46  1  0.56405302  -0.07904699  0.45648215  1
  F  F47  1  -0.64310001  0.43594698  0.45648215  1
  F  F48  1  -0.64310001  -0.07904699  -0.04351785  1
  F  F49  1  1.07904699  0.43594698  -0.04351785  1
  F  F50  1  0.56405302  1.64310001  -0.04351785  1
  F  F51  1  -0.41238033  -0.30976668  1.87685119  1
  F  F52  1  0.10261365  1.41238033  1.87685119  1
  F  F53  1  1.30976668  0.89738635  1.87685119  1
  F  F54  1  0.00000000  0.00000000  0.00000000  1
  F  F55  1  0.00000000  0.00000000  0.50000000  1
  F  F56  1  0.66666667  0.33333333  0.33333333  1
  F  F57  1  0.66666667  0.33333333  0.83333333  1
  F  F58  1  0.33333333  0.66666667  0.66666667  1
  F  F59  1  0.33333333  0.66666667  0.16666667  1
  F  F60  1  0.00000000  0.00000000  0.91666409  1
  F  F61  1  0.00000000  0.00000000  0.58333591  1
  F  F62  1  0.00000000  0.00000000  0.08333591  1
  F  F63  1  0.00000000  0.00000000  0.41666409  1
  F  F64  1  0.66666667  0.33333333  0.24999742  1
  F  F65  1  0.66666667  0.33333333  0.91666925  1
  F  F66  1  0.66666667  0.33333333  0.41666925  1
  F  F67  1  0.66666667  0.33333333  0.74999742  1
  F  F68  1  0.33333333  0.66666667  0.58333075  1
  F  F69  1  0.33333333  0.66666667  0.25000258  1
  F  F70  1  0.33333333  0.66666667  0.75000258  1
  F  F71  1  0.33333333  0.66666667  0.08333075  1
  Li  Li72  1  0.00000000  0.00000000  0.25000000  1
  Li  Li73  1  0.00000000  0.00000000  0.75000000  1
  Li  Li74  1  0.66666667  0.33333333  0.58333333  1
  Li  Li75  1  0.66666667  0.33333333  0.08333333  1
  Li  Li76  1  0.33333333  0.66666667  0.91666667  1
  Li  Li77  1  0.33333333  0.66666667  0.41666667  1
  Li  Li78  1  0.00000000  0.00000000  0.33449169  1
  Li  Li79  1  0.00000000  0.00000000  0.16550831  1
  Li  Li80  1  0.00000000  0.00000000  0.66550831  1
  Li  Li81  1  0.00000000  0.00000000  0.83449169  1
  Li  Li82  1  0.66666667  0.33333333  0.66782502  1
  Li  Li83  1  0.66666667  0.33333333  0.49884164  1
  Li  Li84  1  0.66666667  0.33333333  0.99884164  1
  Li  Li85  1  0.66666667  0.33333333  0.16782502  1
  Li  Li86  1  0.33333333  0.66666667  0.00115836  1
  Li  Li87  1  0.33333333  0.66666667  0.83217498  1
  Li  Li88  1  0.33333333  0.66666667  0.33217498  1
  Li  Li89  1  0.33333333  0.66666667  0.50115836  1
