# generated using pymatgen
data_LiF
_symmetry_space_group_name_H-M   'P 1'
_cell_length_a   12.11720920
_cell_length_b   9.91508067
_cell_length_c   5.70332820
_cell_angle_alpha   90.00000000
_cell_angle_beta   90.00000000
_cell_angle_gamma   90.00000000
_symmetry_Int_Tables_number   1
_chemical_formula_structural   LiF
_chemical_formula_sum   'Li24 F24'
_cell_volume   685.21556930
_cell_formula_units_Z   24
loop_
 _symmetry_equiv_pos_site_id
 _symmetry_equiv_pos_as_xyz
  1  'x, y, z'
loop_
 _atom_site_type_symbol
 _atom_site_label
 _atom_site_symmetry_multiplicity
 _atom_site_fract_x
 _atom_site_fract_y
 _atom_site_fract_z
 _atom_site_occupancy
  F  F0  1  0.06848488  0.64119481  0.05277703  1
  F  F1  1  0.43151512  0.35880519  0.55277703  1
  F  F2  1  0.93151512  0.14119481  0.94722297  1
  F  F3  1  0.56848488  0.85880519  0.44722297  1
  F  F4  1  0.93151512  0.35880519  0.94722297  1
  F  F5  1  0.56848488  0.64119481  0.44722297  1
  F  F6  1  0.06848488  0.85880519  0.05277703  1
  F  F7  1  0.43151512  0.14119481  0.55277703  1
  F  F8  1  0.15121222  0.25000000  0.57788570  1
  F  F9  1  0.34878778  0.75000000  0.07788570  1
  F  F10  1  0.84878778  0.75000000  0.42211430  1
  F  F11  1  0.65121222  0.25000000  0.92211430  1
  F  F12  1  0.69417944  0.44948154  0.10532372  1
  F  F13  1  0.80582056  0.55051846  0.60532372  1
  F  F14  1  0.30582056  0.94948154  0.89467628  1
  F  F15  1  0.19417944  0.05051846  0.39467628  1
  F  F16  1  0.30582056  0.55051846  0.89467628  1
  F  F17  1  0.19417944  0.44948154  0.39467628  1
  F  F18  1  0.69417944  0.05051846  0.10532372  1
  F  F19  1  0.80582056  0.94948154  0.60532372  1
  F  F20  1  0.91320707  0.25000000  0.69617334  1
  F  F21  1  0.58679293  0.75000000  0.19617334  1
  F  F22  1  0.08679293  0.75000000  0.30382666  1
  F  F23  1  0.41320707  0.25000000  0.80382666  1
  Li  Li24  1  0.04093383  0.14874365  0.56278988  1
  Li  Li25  1  0.45906617  -0.14874365  1.06278988  1
  Li  Li26  1  -0.04093383  0.64874365  -0.56278988  1
  Li  Li27  1  0.54093383  0.35125635  -0.06278988  1
  Li  Li28  1  -0.04093383  -0.14874365  -0.56278988  1
  Li  Li29  1  0.54093383  0.14874365  -0.06278988  1
  Li  Li30  1  0.04093383  0.35125635  0.56278988  1
  Li  Li31  1  0.45906617  0.64874365  1.06278988  1
  Li  Li32  1  0.00000000  0.00000000  0.50000000  1
  Li  Li33  1  0.50000000  0.00000000  0.00000000  1
  Li  Li34  1  0.00000000  0.50000000  0.50000000  1
  Li  Li35  1  0.50000000  0.50000000  0.00000000  1
  Li  Li36  1  0.43724388  0.14598764  0.98858939  1
  Li  Li37  1  0.06275612  0.85401236  0.48858939  1
  Li  Li38  1  0.56275612  0.64598764  0.01141061  1
  Li  Li39  1  0.93724388  0.35401236  0.51141061  1
  Li  Li40  1  0.56275612  0.85401236  0.01141061  1
  Li  Li41  1  0.93724388  0.14598764  0.51141061  1
  Li  Li42  1  0.43724388  0.35401236  0.98858939  1
  Li  Li43  1  0.06275612  0.64598764  0.48858939  1
  Li  Li44  1  0.95709223  0.25000000  0.87861741  1
  Li  Li45  1  0.54290777  0.75000000  0.37861741  1
  Li  Li46  1  0.04290777  0.75000000  0.12138259  1
  Li  Li47  1  0.45709223  0.25000000  0.62138259  1
