# generated using pymatgen
data_LiF
_symmetry_space_group_name_H-M   'P 1'
_cell_length_a   6.83589994
_cell_length_b   12.04900583
_cell_length_c   7.47144219
_cell_angle_alpha   90.00000000
_cell_angle_beta   90.00000000
_cell_angle_gamma   90.00000000
_symmetry_Int_Tables_number   1
_chemical_formula_structural   LiF
_chemical_formula_sum   'Li24 F24'
_cell_volume   615.39129914
_cell_formula_units_Z   24
loop_
 _symmetry_equiv_pos_site_id
 _symmetry_equiv_pos_as_xyz
  1  'x, y, z'
loop_
 _atom_site_type_symbol
 _atom_site_label
 _atom_site_symmetry_multiplicity
 _atom_site_fract_x
 _atom_site_fract_y
 _atom_site_fract_z
 _atom_site_occupancy
  F  F0  1  0.93482599  0.91626576  0.71224522  1
  F  F1  1  0.56517401  0.08373424  0.21224522  1
  F  F2  1  0.06517401  0.41626576  0.28775478  1
  F  F3  1  0.43482599  0.58373424  0.78775478  1
  F  F4  1  0.06517401  0.08373424  0.28775478  1
  F  F5  1  0.43482599  0.91626576  0.78775478  1
  F  F6  1  0.93482599  0.58373424  0.71224522  1
  F  F7  1  0.56517401  0.41626576  0.21224522  1
  F  F8  1  0.88643821  0.17030827  0.96356600  1
  F  F9  1  0.61356179  0.82969173  0.46356600  1
  F  F10  1  0.11356179  0.67030827  0.03643400  1
  F  F11  1  0.38643821  0.32969173  0.53643400  1
  F  F12  1  0.11356179  0.82969173  0.03643400  1
  F  F13  1  0.38643821  0.17030827  0.53643400  1
  F  F14  1  0.88643821  0.32969173  0.96356600  1
  F  F15  1  0.61356179  0.67030827  0.46356600  1
  F  F16  1  0.67661611  0.87913099  0.85096403  1
  F  F17  1  0.82338389  0.12086901  0.35096403  1
  F  F18  1  0.32338389  0.37913099  0.14903597  1
  F  F19  1  0.17661611  0.62086901  0.64903597  1
  F  F20  1  0.32338389  0.12086901  0.14903597  1
  F  F21  1  0.17661611  0.87913099  0.64903597  1
  F  F22  1  0.67661611  0.62086901  0.85096403  1
  F  F23  1  0.82338389  0.37913099  0.35096403  1
  Li  Li24  1  0.00000000  0.00000000  0.50000000  1
  Li  Li25  1  0.50000000  0.00000000  0.00000000  1
  Li  Li26  1  0.00000000  0.50000000  0.50000000  1
  Li  Li27  1  0.50000000  0.50000000  0.00000000  1
  Li  Li28  1  0.63080779  0.50709711  0.82961211  1
  Li  Li29  1  -0.13080779  -0.50709711  1.32961211  1
  Li  Li30  1  -0.63080779  1.00709711  -0.82961211  1
  Li  Li31  1  1.13080779  -0.00709711  -0.32961211  1
  Li  Li32  1  -0.63080779  -0.50709711  -0.82961211  1
  Li  Li33  1  1.13080779  0.50709711  -0.32961211  1
  Li  Li34  1  0.63080779  -0.00709711  0.82961211  1
  Li  Li35  1  -0.13080779  1.00709711  1.32961211  1
  Li  Li36  1  0.41840023  0.11933338  0.69272203  1
  Li  Li37  1  0.08159977  0.88066662  0.19272203  1
  Li  Li38  1  0.58159977  0.61933338  0.30727797  1
  Li  Li39  1  0.91840023  0.38066662  0.80727797  1
  Li  Li40  1  0.58159977  0.88066662  0.30727797  1
  Li  Li41  1  0.91840023  0.11933338  0.80727797  1
  Li  Li42  1  0.41840023  0.38066662  0.69272203  1
  Li  Li43  1  0.08159977  0.61933338  0.19272203  1
  Li  Li44  1  0.00000000  0.00000000  0.00000000  1
  Li  Li45  1  0.50000000  0.00000000  0.50000000  1
  Li  Li46  1  0.00000000  0.50000000  0.00000000  1
  Li  Li47  1  0.50000000  0.50000000  0.50000000  1
