# generated using pymatgen
data_LiF
_symmetry_space_group_name_H-M   'P 1'
_cell_length_a   9.33058659
_cell_length_b   9.33058659
_cell_length_c   17.45459244
_cell_angle_alpha   90.00000000
_cell_angle_beta   90.00000000
_cell_angle_gamma   120.00000000
_symmetry_Int_Tables_number   1
_chemical_formula_structural   LiF
_chemical_formula_sum   'Li38 F38'
_cell_volume   1316.00712195
_cell_formula_units_Z   38
loop_
 _symmetry_equiv_pos_site_id
 _symmetry_equiv_pos_as_xyz
  1  'x, y, z'
loop_
 _atom_site_type_symbol
 _atom_site_label
 _atom_site_symmetry_multiplicity
 _atom_site_fract_x
 _atom_site_fract_y
 _atom_site_fract_z
 _atom_site_occupancy
  F  F0  1  0.58482132  0.41494080  0.04848468  1
  F  F1  1  0.58505920  0.16988052  0.04848468  1
  F  F2  1  0.83011948  0.41517868  0.04848468  1
  F  F3  1  0.58505920  0.41517868  0.95151532  1
  F  F4  1  0.83011948  0.41494080  0.95151532  1
  F  F5  1  0.58482132  0.16988052  0.95151532  1
  F  F6  1  0.64833353  0.90093060  0.11562676  1
  F  F7  1  0.09906940  0.74740293  0.11562676  1
  F  F8  1  0.25259707  0.35166647  0.11562676  1
  F  F9  1  0.09906940  0.35166647  0.88437324  1
  F  F10  1  0.25259707  0.90093060  0.88437324  1
  F  F11  1  0.64833353  0.74740293  0.88437324  1
  F  F12  1  0.57168894  0.97529350  0.77257109  1
  F  F13  1  0.02470650  0.59639544  0.77257109  1
  F  F14  1  0.40360456  0.42831106  0.77257109  1
  F  F15  1  0.02470650  0.42831106  0.22742891  1
  F  F16  1  0.40360456  0.97529350  0.22742891  1
  F  F17  1  0.57168894  0.59639544  0.22742891  1
  F  F18  1  0.66666667  0.33333333  0.50000000  1
  F  F19  1  0.90175394  0.34920818  0.95141352  1
  F  F20  1  0.65079182  0.55254576  0.95141352  1
  F  F21  1  0.44745424  0.09824606  0.95141352  1
  F  F22  1  0.65079182  0.09824606  0.04858648  1
  F  F23  1  0.44745424  0.34920818  0.04858648  1
  F  F24  1  0.90175394  0.55254576  0.04858648  1
  F  F25  1  0.83979832  0.05332291  0.55176153  1
  F  F26  1  0.94667709  0.78647541  0.55176153  1
  F  F27  1  0.21352459  0.16020168  0.55176153  1
  F  F28  1  0.94667709  0.16020168  0.44823847  1
  F  F29  1  0.21352459  0.05332291  0.44823847  1
  F  F30  1  0.83979832  0.78647541  0.44823847  1
  F  F31  1  0.23762453  0.00397256  0.58130938  1
  F  F32  1  0.99602744  0.23365197  0.58130938  1
  F  F33  1  0.76634803  0.76237547  0.58130938  1
  F  F34  1  0.99602744  0.76237547  0.41869062  1
  F  F35  1  0.76634803  0.00397256  0.41869062  1
  F  F36  1  0.23762453  0.23365197  0.41869062  1
  F  F37  1  0.00000000  0.00000000  0.00000000  1
  Li  Li38  1  0.22968267  0.68737833  0.09251223  1
  Li  Li39  1  -0.68737833  -0.45769566  0.09251223  1
  Li  Li40  1  0.45769566  -0.22968267  0.09251223  1
  Li  Li41  1  -0.68737833  -0.22968267  -0.09251223  1
  Li  Li42  1  0.45769566  0.68737833  -0.09251223  1
  Li  Li43  1  0.22968267  -0.45769566  -0.09251223  1
  Li  Li44  1  0.33333333  0.66666667  0.00000000  1
  Li  Li45  1  0.00000000  0.00000000  0.92157480  1
  Li  Li46  1  0.00000000  0.00000000  0.07842520  1
  Li  Li47  1  0.33333333  0.66666667  0.50000000  1
  Li  Li48  1  0.94114034  0.31539749  0.59441257  1
  Li  Li49  1  0.68460251  0.62574285  0.59441257  1
  Li  Li50  1  0.37425715  0.05885966  0.59441257  1
  Li  Li51  1  0.68460251  0.05885966  0.40558743  1
  Li  Li52  1  0.37425715  0.31539749  0.40558743  1
  Li  Li53  1  0.94114034  0.62574285  0.40558743  1
  Li  Li54  1  0.03069610  0.18202509  0.27945926  1
  Li  Li55  1  0.81797491  0.84867101  0.27945926  1
  Li  Li56  1  0.15132899  0.96930390  0.27945926  1
  Li  Li57  1  0.81797491  0.96930390  0.72054074  1
  Li  Li58  1  0.15132899  0.18202509  0.72054074  1
  Li  Li59  1  0.03069610  0.84867101  0.72054074  1
  Li  Li60  1  0.20443914  0.41272891  0.67003904  1
  Li  Li61  1  0.58727109  0.79171023  0.67003904  1
  Li  Li62  1  0.20828977  0.79556086  0.67003904  1
  Li  Li63  1  0.58727109  0.79556086  0.32996096  1
  Li  Li64  1  0.20828977  0.41272891  0.32996096  1
  Li  Li65  1  0.20443914  0.79171023  0.32996096  1
  Li  Li66  1  0.53866550  0.57779512  0.77365147  1
  Li  Li67  1  0.42220488  0.96087038  0.77365147  1
  Li  Li68  1  0.03912962  0.46133450  0.77365147  1
  Li  Li69  1  0.42220488  0.46133450  0.22634853  1
  Li  Li70  1  0.03912962  0.57779512  0.22634853  1
  Li  Li71  1  0.53866550  0.96087038  0.22634853  1
  Li  Li72  1  0.88393198  0.11606802  0.50000000  1
  Li  Li73  1  0.88393198  0.76786396  0.50000000  1
  Li  Li74  1  0.23213604  0.11606802  0.50000000  1
  Li  Li75  1  0.00000000  0.00000000  0.50000000  1
