# generated using pymatgen
data_LiYMoPSe
_symmetry_space_group_name_H-M   'P 1'
_cell_length_a   4.95331892
_cell_length_b   5.14733086
_cell_length_c   6.92589804
_cell_angle_alpha   94.41789681
_cell_angle_beta   99.82825609
_cell_angle_gamma   107.99487061
_symmetry_Int_Tables_number   1
_chemical_formula_structural   LiYMoPSe
_chemical_formula_sum   'Li2 Y2 Mo2 P2 Se2'
_cell_volume   163.88847724
_cell_formula_units_Z   2
loop_
 _symmetry_equiv_pos_site_id
 _symmetry_equiv_pos_as_xyz
  1  'x, y, z'
loop_
 _atom_site_type_symbol
 _atom_site_label
 _atom_site_symmetry_multiplicity
 _atom_site_fract_x
 _atom_site_fract_y
 _atom_site_fract_z
 _atom_site_occupancy
  Se  Se0  1  0.00000000  0.00000000  0.00000000  1
  Se  Se1  1  0.50000000  0.50000000  0.50000000  1
  Y  Y2  1  0.25000000  0.25000000  0.25000000  1
  Y  Y3  1  0.75000000  0.25000000  0.00000000  1
  P  P4  1  0.25000000  0.75000000  0.50000000  1
  P  P5  1  0.02634176  0.91905721  0.31515223  1
  Mo  Mo6  1  0.39073575  0.51255608  0.00004696  1
  Mo  Mo7  1  0.28889380  0.72335068  0.71351381  1
  Li  Li8  1  0.74547038  0.94727205  0.96500614  1
  Li  Li9  1  0.12447912  0.52551627  0.68644781  1
