# generated using pymatgen
data_LiYAsP3Pb2
_symmetry_space_group_name_H-M   'P 1'
_cell_length_a   5.21480100
_cell_length_b   5.19392592
_cell_length_c   6.17496253
_cell_angle_alpha   94.19247159
_cell_angle_beta   94.81798267
_cell_angle_gamma   98.46564454
_symmetry_Int_Tables_number   1
_chemical_formula_structural   LiYAsP3Pb2
_chemical_formula_sum   'Li1 Y1 As1 P3 Pb2'
_cell_volume   164.22279692
_cell_formula_units_Z   1
loop_
 _symmetry_equiv_pos_site_id
 _symmetry_equiv_pos_as_xyz
  1  'x, y, z'
loop_
 _atom_site_type_symbol
 _atom_site_label
 _atom_site_symmetry_multiplicity
 _atom_site_fract_x
 _atom_site_fract_y
 _atom_site_fract_z
 _atom_site_occupancy
  Pb  Pb0  1  0.00000000  0.00000000  0.00000000  1
  Pb  Pb1  1  0.50000000  0.50000000  0.50000000  1
  Y  Y2  1  0.25000000  0.25000000  0.25000000  1
  P  P3  1  0.75000000  0.25000000  0.00000000  1
  P  P4  1  0.25000000  0.75000000  0.50000000  1
  P  P5  1  0.11106798  0.49406434  0.18745191  1
  As  As6  1  0.60930188  0.75911485  0.75878946  1
  Li  Li7  1  0.19902477  0.06411083  0.18718486  1
