# generated using pymatgen
data_Li3Y2(PSe)2
_symmetry_space_group_name_H-M   'P 1'
_cell_length_a   5.39154592
_cell_length_b   5.64083646
_cell_length_c   7.31053119
_cell_angle_alpha   94.00246846
_cell_angle_beta   98.71654422
_cell_angle_gamma   106.07632507
_symmetry_Int_Tables_number   1
_chemical_formula_structural   Li3Y2(PSe)2
_chemical_formula_sum   'Li3 Y2 P2 Se2'
_cell_volume   209.70463267
_cell_formula_units_Z   1
loop_
 _symmetry_equiv_pos_site_id
 _symmetry_equiv_pos_as_xyz
  1  'x, y, z'
loop_
 _atom_site_type_symbol
 _atom_site_label
 _atom_site_symmetry_multiplicity
 _atom_site_fract_x
 _atom_site_fract_y
 _atom_site_fract_z
 _atom_site_occupancy
  Y  Y0  1  0.12500000  0.12500000  0.12500000  1
  Y  Y1  1  0.50000000  0.50000000  0.50000000  1
  P  P2  1  0.25000000  0.25000000  0.25000000  1
  P  P3  1  0.75000000  0.75000000  0.75000000  1
  Se  Se4  1  0.11202270  0.97344831  0.58503563  1
  Se  Se5  1  0.26573767  0.05486156  0.38607092  1
  Li  Li6  1  0.76263757  0.38609888  0.61313127  1
  Li  Li7  1  0.04760133  0.99368148  0.96088053  1
  Li  Li8  1  0.67769093  0.12189753  0.76991501  1
