# generated using pymatgen
data_LiF
_symmetry_space_group_name_H-M   'P 1'
_cell_length_a   9.96541264
_cell_length_b   9.96541264
_cell_length_c   9.58124125
_cell_angle_alpha   90.00000000
_cell_angle_beta   90.00000000
_cell_angle_gamma   120.00000000
_symmetry_Int_Tables_number   1
_chemical_formula_structural   LiF
_chemical_formula_sum   'Li36 F36'
_cell_volume   824.02991885
_cell_formula_units_Z   36
loop_
 _symmetry_equiv_pos_site_id
 _symmetry_equiv_pos_as_xyz
  1  'x, y, z'
loop_
 _atom_site_type_symbol
 _atom_site_label
 _atom_site_symmetry_multiplicity
 _atom_site_fract_x
 _atom_site_fract_y
 _atom_site_fract_z
 _atom_site_occupancy
  F  F0  1  0.54744506  0.32581098  0.20613422  1
  F  F1  1  -0.32581098  0.22163408  0.20613422  1
  F  F2  1  -0.22163408  -0.54744506  0.20613422  1
  F  F3  1  -0.54744506  -0.32581098  0.70613422  1
  F  F4  1  0.32581098  -0.22163408  0.70613422  1
  F  F5  1  0.22163408  0.54744506  0.70613422  1
  F  F6  1  -0.54744506  -0.32581098  -0.20613422  1
  F  F7  1  0.32581098  -0.22163408  -0.20613422  1
  F  F8  1  0.22163408  0.54744506  -0.20613422  1
  F  F9  1  0.54744506  0.32581098  0.29386578  1
  F  F10  1  -0.32581098  0.22163408  0.29386578  1
  F  F11  1  -0.22163408  -0.54744506  0.29386578  1
  F  F12  1  0.00000000  0.00000000  0.25000000  1
  F  F13  1  0.00000000  0.00000000  0.75000000  1
  F  F14  1  0.00971443  0.59614751  0.79735463  1
  F  F15  1  0.40385249  0.41356692  0.79735463  1
  F  F16  1  0.58643308  0.99028557  0.79735463  1
  F  F17  1  0.99028557  0.40385249  0.29735463  1
  F  F18  1  0.59614751  0.58643308  0.29735463  1
  F  F19  1  0.41356692  0.00971443  0.29735463  1
  F  F20  1  0.99028557  0.40385249  0.20264537  1
  F  F21  1  0.59614751  0.58643308  0.20264537  1
  F  F22  1  0.41356692  0.00971443  0.20264537  1
  F  F23  1  0.00971443  0.59614751  0.70264537  1
  F  F24  1  0.40385249  0.41356692  0.70264537  1
  F  F25  1  0.58643308  0.99028557  0.70264537  1
  F  F26  1  0.50000000  -0.00000000  0.00000000  1
  F  F27  1  0.00000000  0.50000000  0.00000000  1
  F  F28  1  0.50000000  0.50000000  0.00000000  1
  F  F29  1  0.50000000  -0.00000000  0.50000000  1
  F  F30  1  0.00000000  0.50000000  0.50000000  1
  F  F31  1  0.50000000  0.50000000  0.50000000  1
  F  F32  1  0.66666667  0.33333333  0.25000000  1
  F  F33  1  0.33333333  0.66666667  0.75000000  1
  F  F34  1  0.33333333  0.66666667  0.25000000  1
  F  F35  1  0.66666667  0.33333333  0.75000000  1
  Li  Li36  1  0.30443280  0.95404908  0.45371115  1
  Li  Li37  1  0.04595092  0.35038373  0.45371115  1
  Li  Li38  1  0.64961627  0.69556720  0.45371115  1
  Li  Li39  1  0.69556720  0.04595092  0.95371115  1
  Li  Li40  1  0.95404908  0.64961627  0.95371115  1
  Li  Li41  1  0.35038373  0.30443280  0.95371115  1
  Li  Li42  1  0.69556720  0.04595092  0.54628885  1
  Li  Li43  1  0.95404908  0.64961627  0.54628885  1
  Li  Li44  1  0.35038373  0.30443280  0.54628885  1
  Li  Li45  1  0.30443280  0.95404908  0.04628885  1
  Li  Li46  1  0.04595092  0.35038373  0.04628885  1
  Li  Li47  1  0.64961627  0.69556720  0.04628885  1
  Li  Li48  1  0.87478878  0.10305851  0.35546909  1
  Li  Li49  1  0.89694149  0.77173027  0.35546909  1
  Li  Li50  1  0.22826973  0.12521122  0.35546909  1
  Li  Li51  1  0.12521122  0.89694149  0.85546909  1
  Li  Li52  1  0.10305851  0.22826973  0.85546909  1
  Li  Li53  1  0.77173027  0.87478878  0.85546909  1
  Li  Li54  1  0.12521122  0.89694149  0.64453091  1
  Li  Li55  1  0.10305851  0.22826973  0.64453091  1
  Li  Li56  1  0.77173027  0.87478878  0.64453091  1
  Li  Li57  1  0.87478878  0.10305851  0.14453091  1
  Li  Li58  1  0.89694149  0.77173027  0.14453091  1
  Li  Li59  1  0.22826973  0.12521122  0.14453091  1
  Li  Li60  1  0.12256486  0.40401950  0.57593725  1
  Li  Li61  1  0.59598050  0.71854536  0.57593725  1
  Li  Li62  1  0.28145464  0.87743514  0.57593725  1
  Li  Li63  1  0.87743514  0.59598050  0.07593725  1
  Li  Li64  1  0.40401950  0.28145464  0.07593725  1
  Li  Li65  1  0.71854536  0.12256486  0.07593725  1
  Li  Li66  1  0.87743514  0.59598050  0.42406275  1
  Li  Li67  1  0.40401950  0.28145464  0.42406275  1
  Li  Li68  1  0.71854536  0.12256486  0.42406275  1
  Li  Li69  1  0.12256486  0.40401950  0.92406275  1
  Li  Li70  1  0.59598050  0.71854536  0.92406275  1
  Li  Li71  1  0.28145464  0.87743514  0.92406275  1
