# generated using pymatgen
data_LiF
_symmetry_space_group_name_H-M   'P 1'
_cell_length_a   11.83973734
_cell_length_b   11.83973734
_cell_length_c   9.72205200
_cell_angle_alpha   90.00000000
_cell_angle_beta   90.00000000
_cell_angle_gamma   90.00000000
_symmetry_Int_Tables_number   1
_chemical_formula_structural   LiF
_chemical_formula_sum   'Li64 F64'
_cell_volume   1362.83122462
_cell_formula_units_Z   64
loop_
 _symmetry_equiv_pos_site_id
 _symmetry_equiv_pos_as_xyz
  1  'x, y, z'
loop_
 _atom_site_type_symbol
 _atom_site_label
 _atom_site_symmetry_multiplicity
 _atom_site_fract_x
 _atom_site_fract_y
 _atom_site_fract_z
 _atom_site_occupancy
  F  F0  1  0.95803514  0.05091312  0.49675824  1
  F  F1  1  0.54196486  0.94908688  0.99675824  1
  F  F2  1  0.19908688  0.70803514  0.74675824  1
  F  F3  1  0.30091312  0.29196486  0.24675824  1
  F  F4  1  0.54196486  0.05091312  0.50324176  1
  F  F5  1  0.95803514  0.94908688  0.00324176  1
  F  F6  1  0.30091312  0.70803514  0.25324176  1
  F  F7  1  0.19908688  0.29196486  0.75324176  1
  F  F8  1  0.04196486  0.94908688  0.50324176  1
  F  F9  1  0.45803514  0.05091312  0.00324176  1
  F  F10  1  0.80091312  0.29196486  0.25324176  1
  F  F11  1  0.69908688  0.70803514  0.75324176  1
  F  F12  1  0.45803514  0.94908688  0.49675824  1
  F  F13  1  0.04196486  0.05091312  0.99675824  1
  F  F14  1  0.69908688  0.29196486  0.74675824  1
  F  F15  1  0.80091312  0.70803514  0.24675824  1
  F  F16  1  0.45803514  0.55091312  0.99675824  1
  F  F17  1  0.04196486  0.44908688  0.49675824  1
  F  F18  1  0.69908688  0.20803514  0.24675824  1
  F  F19  1  0.80091312  0.79196486  0.74675824  1
  F  F20  1  0.04196486  0.55091312  0.00324176  1
  F  F21  1  0.45803514  0.44908688  0.50324176  1
  F  F22  1  0.80091312  0.20803514  0.75324176  1
  F  F23  1  0.69908688  0.79196486  0.25324176  1
  F  F24  1  0.54196486  0.44908688  0.00324176  1
  F  F25  1  0.95803514  0.55091312  0.50324176  1
  F  F26  1  0.30091312  0.79196486  0.75324176  1
  F  F27  1  0.19908688  0.20803514  0.25324176  1
  F  F28  1  0.95803514  0.44908688  0.99675824  1
  F  F29  1  0.54196486  0.55091312  0.49675824  1
  F  F30  1  0.19908688  0.79196486  0.24675824  1
  F  F31  1  0.30091312  0.20803514  0.74675824  1
  F  F32  1  0.00000000  0.00000000  0.00000000  1
  F  F33  1  0.50000000  0.00000000  0.50000000  1
  F  F34  1  0.25000000  0.75000000  0.25000000  1
  F  F35  1  0.25000000  0.25000000  0.75000000  1
  F  F36  1  0.50000000  0.00000000  0.00000000  1
  F  F37  1  0.00000000  0.00000000  0.50000000  1
  F  F38  1  0.25000000  0.75000000  0.75000000  1
  F  F39  1  0.25000000  0.25000000  0.25000000  1
  F  F40  1  0.50000000  0.50000000  0.50000000  1
  F  F41  1  0.00000000  0.50000000  0.00000000  1
  F  F42  1  0.75000000  0.25000000  0.75000000  1
  F  F43  1  0.75000000  0.75000000  0.25000000  1
  F  F44  1  0.00000000  0.50000000  0.50000000  1
  F  F45  1  0.50000000  0.50000000  0.00000000  1
  F  F46  1  0.75000000  0.25000000  0.25000000  1
  F  F47  1  0.75000000  0.75000000  0.75000000  1
  F  F48  1  0.31501237  0.00000000  0.25000000  1
  F  F49  1  0.18498763  0.00000000  0.75000000  1
  F  F50  1  0.25000000  0.06501237  0.50000000  1
  F  F51  1  0.25000000  0.93498763  -0.00000000  1
  F  F52  1  0.68498763  0.00000000  0.75000000  1
  F  F53  1  0.81501237  0.00000000  0.25000000  1
  F  F54  1  0.75000000  0.93498763  0.50000000  1
  F  F55  1  0.75000000  0.06501237  0.00000000  1
  F  F56  1  0.81501237  0.50000000  0.75000000  1
  F  F57  1  0.68498763  0.50000000  0.25000000  1
  F  F58  1  0.75000000  0.56501237  0.00000000  1
  F  F59  1  0.75000000  0.43498763  0.50000000  1
  F  F60  1  0.18498763  0.50000000  0.25000000  1
  F  F61  1  0.31501237  0.50000000  0.75000000  1
  F  F62  1  0.25000000  0.43498763  -0.00000000  1
  F  F63  1  0.25000000  0.56501237  0.50000000  1
  Li  Li64  1  0.88168269  0.23516554  0.92665401  1
  Li  Li65  1  -0.38168269  -0.23516554  1.42665401  1
  Li  Li66  1  0.01483446  1.63168269  1.17665401  1
  Li  Li67  1  0.48516554  -0.63168269  1.67665401  1
  Li  Li68  1  -0.38168269  0.23516554  -0.92665401  1
  Li  Li69  1  0.88168269  -0.23516554  -0.42665401  1
  Li  Li70  1  0.48516554  1.63168269  -0.17665401  1
  Li  Li71  1  0.01483446  -0.63168269  -0.67665401  1
  Li  Li72  1  -0.88168269  -0.23516554  -0.92665401  1
  Li  Li73  1  1.38168269  0.23516554  -0.42665401  1
  Li  Li74  1  0.98516554  -0.63168269  -0.17665401  1
  Li  Li75  1  0.51483446  1.63168269  -0.67665401  1
  Li  Li76  1  1.38168269  -0.23516554  0.92665401  1
  Li  Li77  1  -0.88168269  0.23516554  1.42665401  1
  Li  Li78  1  0.51483446  -0.63168269  1.17665401  1
  Li  Li79  1  0.98516554  1.63168269  1.67665401  1
  Li  Li80  1  1.38168269  0.73516554  1.42665401  1
  Li  Li81  1  0.11831731  0.26483446  1.92665401  1
  Li  Li82  1  0.51483446  2.13168269  1.67665401  1
  Li  Li83  1  0.98516554  -0.13168269  2.17665401  1
  Li  Li84  1  0.11831731  0.73516554  -0.42665401  1
  Li  Li85  1  1.38168269  0.26483446  0.07334599  1
  Li  Li86  1  0.98516554  2.13168269  0.32334599  1
  Li  Li87  1  0.51483446  -0.13168269  -0.17665401  1
  Li  Li88  1  -0.38168269  0.26483446  -0.42665401  1
  Li  Li89  1  1.88168269  0.73516554  0.07334599  1
  Li  Li90  1  1.48516554  -0.13168269  0.32334599  1
  Li  Li91  1  1.01483446  2.13168269  -0.17665401  1
  Li  Li92  1  1.88168269  0.26483446  1.42665401  1
  Li  Li93  1  -0.38168269  0.73516554  1.92665401  1
  Li  Li94  1  1.01483446  -0.13168269  1.67665401  1
  Li  Li95  1  1.48516554  2.13168269  2.17665401  1
  Li  Li96  1  0.89511910  0.00000000  0.25000000  1
  Li  Li97  1  0.60488090  0.00000000  0.75000000  1
  Li  Li98  1  0.25000000  0.64511910  0.50000000  1
  Li  Li99  1  0.25000000  0.35488090  -0.00000000  1
  Li  Li100  1  0.10488090  0.00000000  0.75000000  1
  Li  Li101  1  0.39511910  0.00000000  0.25000000  1
  Li  Li102  1  0.75000000  0.35488090  0.50000000  1
  Li  Li103  1  0.75000000  0.64511910  -0.00000000  1
  Li  Li104  1  0.39511910  0.50000000  0.75000000  1
  Li  Li105  1  0.10488090  0.50000000  0.25000000  1
  Li  Li106  1  0.75000000  0.14511910  0.00000000  1
  Li  Li107  1  0.75000000  0.85488090  0.50000000  1
  Li  Li108  1  0.60488090  0.50000000  0.25000000  1
  Li  Li109  1  0.89511910  0.50000000  0.75000000  1
  Li  Li110  1  0.25000000  0.85488090  0.00000000  1
  Li  Li111  1  0.25000000  0.14511910  0.50000000  1
  Li  Li112  1  0.00000000  0.25000000  0.12500000  1
  Li  Li113  1  0.00000000  0.75000000  0.37500000  1
  Li  Li114  1  0.00000000  0.75000000  0.87500000  1
  Li  Li115  1  0.00000000  0.25000000  0.62500000  1
  Li  Li116  1  0.50000000  0.75000000  0.62500000  1
  Li  Li117  1  0.50000000  0.25000000  0.87500000  1
  Li  Li118  1  0.50000000  0.25000000  0.37500000  1
  Li  Li119  1  0.50000000  0.75000000  0.12500000  1
  Li  Li120  1  0.00000000  0.25000000  0.37500000  1
  Li  Li121  1  0.00000000  0.75000000  0.62500000  1
  Li  Li122  1  0.50000000  0.25000000  0.62500000  1
  Li  Li123  1  0.50000000  0.75000000  0.37500000  1
  Li  Li124  1  0.50000000  0.75000000  0.87500000  1
  Li  Li125  1  0.50000000  0.25000000  0.12500000  1
  Li  Li126  1  0.00000000  0.75000000  0.12500000  1
  Li  Li127  1  0.00000000  0.25000000  0.87500000  1
