# generated using pymatgen
data_LiF
_symmetry_space_group_name_H-M   'P 1'
_cell_length_a   10.91553137
_cell_length_b   10.91553137
_cell_length_c   5.39838343
_cell_angle_alpha   90.00000000
_cell_angle_beta   90.00000000
_cell_angle_gamma   120.00000000
_symmetry_Int_Tables_number   1
_chemical_formula_structural   LiF
_chemical_formula_sum   'Li22 F22'
_cell_volume   557.03710320
_cell_formula_units_Z   22
loop_
 _symmetry_equiv_pos_site_id
 _symmetry_equiv_pos_as_xyz
  1  'x, y, z'
loop_
 _atom_site_type_symbol
 _atom_site_label
 _atom_site_symmetry_multiplicity
 _atom_site_fract_x
 _atom_site_fract_y
 _atom_site_fract_z
 _atom_site_occupancy
  F  F0  1  0.55414571  0.16443592  0.02585102  1
  F  F1  1  0.83556408  0.38970979  0.02585102  1
  F  F2  1  0.61029021  0.44585429  0.02585102  1
  F  F3  1  0.83556408  0.44585429  0.97414898  1
  F  F4  1  0.61029021  0.16443592  0.97414898  1
  F  F5  1  0.55414571  0.38970979  0.97414898  1
  F  F6  1  0.01352998  0.25441463  0.37401360  1
  F  F7  1  0.74558537  0.75911535  0.37401360  1
  F  F8  1  0.24088465  0.98647002  0.37401360  1
  F  F9  1  0.74558537  0.98647002  0.62598640  1
  F  F10  1  0.24088465  0.25441463  0.62598640  1
  F  F11  1  0.01352998  0.75911535  0.62598640  1
  F  F12  1  0.33333333  0.66666667  0.50000000  1
  F  F13  1  0.33670059  0.22028545  0.27758244  1
  F  F14  1  0.77971455  0.11641515  0.27758244  1
  F  F15  1  0.88358485  0.66329941  0.27758244  1
  F  F16  1  0.77971455  0.66329941  0.72241756  1
  F  F17  1  0.88358485  0.22028545  0.72241756  1
  F  F18  1  0.33670059  0.11641515  0.72241756  1
  F  F19  1  0.30119901  0.69880099  0.00000000  1
  F  F20  1  0.30119901  0.60239802  0.00000000  1
  F  F21  1  0.39760198  0.69880099  -0.00000000  1
  Li  Li22  1  0.47400948  0.52599052  0.00000000  1
  Li  Li23  1  0.47400948  0.94801896  -0.00000000  1
  Li  Li24  1  0.05198104  0.52599052  0.00000000  1
  Li  Li25  1  0.67980485  0.27158713  0.81984687  1
  Li  Li26  1  -0.27158713  0.40821772  0.81984687  1
  Li  Li27  1  -0.40821772  -0.67980485  0.81984687  1
  Li  Li28  1  -0.27158713  -0.67980485  -0.81984687  1
  Li  Li29  1  -0.40821772  0.27158713  -0.81984687  1
  Li  Li30  1  0.67980485  0.40821772  -0.81984687  1
  Li  Li31  1  0.06520500  0.69320265  0.10625452  1
  Li  Li32  1  0.30679735  0.37200235  0.10625452  1
  Li  Li33  1  0.62799765  0.93479500  0.10625452  1
  Li  Li34  1  0.30679735  0.93479500  0.89374548  1
  Li  Li35  1  0.62799765  0.69320265  0.89374548  1
  Li  Li36  1  0.06520500  0.37200235  0.89374548  1
  Li  Li37  1  0.88852159  0.52566955  0.07370457  1
  Li  Li38  1  0.47433045  0.36285204  0.07370457  1
  Li  Li39  1  0.63714796  0.11147841  0.07370457  1
  Li  Li40  1  0.47433045  0.11147841  0.92629543  1
  Li  Li41  1  0.63714796  0.52566955  0.92629543  1
  Li  Li42  1  0.88852159  0.36285204  0.92629543  1
  Li  Li43  1  0.00000000  0.00000000  0.50000000  1
