# generated using pymatgen
data_LiF
_symmetry_space_group_name_H-M   'P 1'
_cell_length_a   6.15898519
_cell_length_b   8.55272105
_cell_length_c   7.70531422
_cell_angle_alpha   90.00000000
_cell_angle_beta   90.00000000
_cell_angle_gamma   90.00000000
_symmetry_Int_Tables_number   1
_chemical_formula_structural   LiF
_chemical_formula_sum   'Li20 F20'
_cell_volume   405.88576622
_cell_formula_units_Z   20
loop_
 _symmetry_equiv_pos_site_id
 _symmetry_equiv_pos_as_xyz
  1  'x, y, z'
loop_
 _atom_site_type_symbol
 _atom_site_label
 _atom_site_symmetry_multiplicity
 _atom_site_fract_x
 _atom_site_fract_y
 _atom_site_fract_z
 _atom_site_occupancy
  F  F0  1  0.59599082  0.91046491  0.17019002  1
  F  F1  1  0.90400918  0.08953509  0.67019002  1
  F  F2  1  0.40400918  0.41046491  0.82980998  1
  F  F3  1  0.09599082  0.58953509  0.32980998  1
  F  F4  1  0.40400918  0.08953509  0.82980998  1
  F  F5  1  0.09599082  0.91046491  0.32980998  1
  F  F6  1  0.59599082  0.58953509  0.17019002  1
  F  F7  1  0.90400918  0.41046491  0.67019002  1
  F  F8  1  0.06510374  0.82581021  0.40434937  1
  F  F9  1  0.43489626  0.17418979  0.90434937  1
  F  F10  1  0.93489626  0.32581021  0.59565063  1
  F  F11  1  0.56510374  0.67418979  0.09565063  1
  F  F12  1  0.93489626  0.17418979  0.59565063  1
  F  F13  1  0.56510374  0.82581021  0.09565063  1
  F  F14  1  0.06510374  0.67418979  0.40434937  1
  F  F15  1  0.43489626  0.32581021  0.90434937  1
  F  F16  1  0.10497320  0.25000000  0.74016281  1
  F  F17  1  0.39502680  0.75000000  0.24016281  1
  F  F18  1  0.89502680  0.75000000  0.25983719  1
  F  F19  1  0.60497320  0.25000000  0.75983719  1
  Li  Li20  1  0.79294484  0.25000000  0.98776166  1
  Li  Li21  1  0.70705516  0.75000000  0.48776166  1
  Li  Li22  1  0.20705516  0.75000000  0.01223834  1
  Li  Li23  1  0.29294484  0.25000000  0.51223834  1
  Li  Li24  1  0.80659162  0.34419118  0.45098681  1
  Li  Li25  1  -0.30659162  -0.34419118  0.95098681  1
  Li  Li26  1  -0.80659162  0.84419118  -0.45098681  1
  Li  Li27  1  1.30659162  0.15580882  0.04901319  1
  Li  Li28  1  -0.80659162  -0.34419118  -0.45098681  1
  Li  Li29  1  1.30659162  0.34419118  0.04901319  1
  Li  Li30  1  0.80659162  0.15580882  0.45098681  1
  Li  Li31  1  -0.30659162  0.84419118  0.95098681  1
  Li  Li32  1  0.04004060  0.25000000  0.42362656  1
  Li  Li33  1  0.45995940  0.75000000  0.92362656  1
  Li  Li34  1  0.95995940  0.75000000  0.57637344  1
  Li  Li35  1  0.54004060  0.25000000  0.07637344  1
  Li  Li36  1  0.00000000  0.00000000  0.50000000  1
  Li  Li37  1  0.50000000  0.00000000  0.00000000  1
  Li  Li38  1  0.00000000  0.50000000  0.50000000  1
  Li  Li39  1  0.50000000  0.50000000  0.00000000  1
