# generated using pymatgen
data_LiF
_symmetry_space_group_name_H-M   'P 1'
_cell_length_a   10.02181852
_cell_length_b   9.11637754
_cell_length_c   9.86845832
_cell_angle_alpha   90.00000000
_cell_angle_beta   90.00000000
_cell_angle_gamma   90.00000000
_symmetry_Int_Tables_number   1
_chemical_formula_structural   LiF
_chemical_formula_sum   'Li24 F24'
_cell_volume   901.60881257
_cell_formula_units_Z   24
loop_
 _symmetry_equiv_pos_site_id
 _symmetry_equiv_pos_as_xyz
  1  'x, y, z'
loop_
 _atom_site_type_symbol
 _atom_site_label
 _atom_site_symmetry_multiplicity
 _atom_site_fract_x
 _atom_site_fract_y
 _atom_site_fract_z
 _atom_site_occupancy
  F  F0  1  0.07892188  0.46808133  0.81264011  1
  F  F1  1  0.92107812  0.53191867  0.81264011  1
  F  F2  1  0.42107812  0.96808133  0.68735989  1
  F  F3  1  0.57892188  0.03191867  0.68735989  1
  F  F4  1  0.92107812  0.53191867  0.18735989  1
  F  F5  1  0.07892188  0.46808133  0.18735989  1
  F  F6  1  0.57892188  0.03191867  0.31264011  1
  F  F7  1  0.42107812  0.96808133  0.31264011  1
  F  F8  1  0.89737009  0.64360216  0.23023468  1
  F  F9  1  0.10262991  0.35639784  0.23023468  1
  F  F10  1  0.60262991  0.14360216  0.26976532  1
  F  F11  1  0.39737009  0.85639784  0.26976532  1
  F  F12  1  0.10262991  0.35639784  0.76976532  1
  F  F13  1  0.89737009  0.64360216  0.76976532  1
  F  F14  1  0.39737009  0.85639784  0.73023468  1
  F  F15  1  0.60262991  0.14360216  0.73023468  1
  F  F16  1  0.79514709  0.67763518  0.00000000  1
  F  F17  1  0.20485291  0.32236482  0.00000000  1
  F  F18  1  0.70485291  0.17763518  0.50000000  1
  F  F19  1  0.29514709  0.82236482  0.50000000  1
  F  F20  1  0.00000000  0.00000000  0.78573348  1
  F  F21  1  0.50000000  0.50000000  0.71426652  1
  F  F22  1  0.00000000  0.00000000  0.21426652  1
  F  F23  1  0.50000000  0.50000000  0.28573348  1
  Li  Li24  1  0.67674436  0.82054479  0.39224836  1
  Li  Li25  1  -0.67674436  -0.82054479  0.39224836  1
  Li  Li26  1  -0.17674436  1.32054479  0.10775164  1
  Li  Li27  1  1.17674436  -0.32054479  0.10775164  1
  Li  Li28  1  -0.67674436  -0.82054479  -0.39224836  1
  Li  Li29  1  0.67674436  0.82054479  -0.39224836  1
  Li  Li30  1  1.17674436  -0.32054479  0.89224836  1
  Li  Li31  1  -0.17674436  1.32054479  0.89224836  1
  Li  Li32  1  0.54332654  0.35120281  0.70383713  1
  Li  Li33  1  0.45667346  0.64879719  0.70383713  1
  Li  Li34  1  0.95667346  0.85120281  0.79616287  1
  Li  Li35  1  0.04332654  0.14879719  0.79616287  1
  Li  Li36  1  0.45667346  0.64879719  0.29616287  1
  Li  Li37  1  0.54332654  0.35120281  0.29616287  1
  Li  Li38  1  0.04332654  0.14879719  0.20383713  1
  Li  Li39  1  0.95667346  0.85120281  0.20383713  1
  Li  Li40  1  0.00000000  0.00000000  0.64901355  1
  Li  Li41  1  0.50000000  0.50000000  0.85098645  1
  Li  Li42  1  0.00000000  0.00000000  0.35098645  1
  Li  Li43  1  0.50000000  0.50000000  0.14901355  1
  Li  Li44  1  0.00000000  0.50000000  0.00000000  1
  Li  Li45  1  0.50000000  0.00000000  0.50000000  1
  Li  Li46  1  0.00000000  0.00000000  0.50000000  1
  Li  Li47  1  0.50000000  0.50000000  0.00000000  1
