# generated using pymatgen
data_Li2Si4Te3F12
_symmetry_space_group_name_H-M   'P 1'
_cell_length_a   8.48790663
_cell_length_b   8.48790663
_cell_length_c   20.68452990
_cell_angle_alpha   90.00000000
_cell_angle_beta   90.00000000
_cell_angle_gamma   90.00000000
_symmetry_Int_Tables_number   1
_chemical_formula_structural   Li2Si4Te3F12
_chemical_formula_sum   'Li8 Si16 Te12 F48'
_cell_volume   1490.20783239
_cell_formula_units_Z   4
loop_
 _symmetry_equiv_pos_site_id
 _symmetry_equiv_pos_as_xyz
  1  'x, y, z'
loop_
 _atom_site_type_symbol
 _atom_site_label
 _atom_site_symmetry_multiplicity
 _atom_site_fract_x
 _atom_site_fract_y
 _atom_site_fract_z
 _atom_site_occupancy
  F  F0  1  0.24583147  0.15219041  0.46798623  1
  F  F1  1  0.25416853  -0.15219041  0.96798623  1
  F  F2  1  0.09780959  0.99583147  0.71798623  1
  F  F3  1  0.40219041  0.00416853  1.21798623  1
  F  F4  1  0.25416853  0.15219041  0.03201377  1
  F  F5  1  0.24583147  -0.15219041  -0.46798623  1
  F  F6  1  0.40219041  0.99583147  -0.21798623  1
  F  F7  1  0.09780959  0.00416853  0.28201377  1
  F  F8  1  -0.24583147  -0.15219041  -0.46798623  1
  F  F9  1  0.74583147  0.15219041  0.03201377  1
  F  F10  1  0.90219041  0.00416853  0.28201377  1
  F  F11  1  0.59780959  0.99583147  -0.21798623  1
  F  F12  1  0.74583147  -0.15219041  0.96798623  1
  F  F13  1  -0.24583147  0.15219041  0.46798623  1
  F  F14  1  0.59780959  0.00416853  1.21798623  1
  F  F15  1  0.90219041  0.99583147  0.71798623  1
  F  F16  1  0.74583147  0.65219041  0.96798623  1
  F  F17  1  0.75416853  0.34780959  1.46798623  1
  F  F18  1  0.59780959  1.49583147  1.21798623  1
  F  F19  1  0.90219041  0.50416853  1.71798623  1
  F  F20  1  0.75416853  0.65219041  0.53201377  1
  F  F21  1  0.74583147  0.34780959  0.03201377  1
  F  F22  1  0.90219041  1.49583147  0.28201377  1
  F  F23  1  0.59780959  0.50416853  0.78201377  1
  F  F24  1  0.25416853  0.34780959  0.03201377  1
  F  F25  1  1.24583147  0.65219041  0.53201377  1
  F  F26  1  1.40219041  0.50416853  0.78201377  1
  F  F27  1  1.09780959  1.49583147  0.28201377  1
  F  F28  1  1.24583147  0.34780959  1.46798623  1
  F  F29  1  0.25416853  0.65219041  0.96798623  1
  F  F30  1  1.09780959  0.50416853  1.71798623  1
  F  F31  1  1.40219041  1.49583147  1.21798623  1
  F  F32  1  0.17279559  0.42279559  0.87500000  1
  F  F33  1  0.32720441  0.57720441  0.37500000  1
  F  F34  1  0.82720441  0.92279559  0.12500000  1
  F  F35  1  0.67279559  0.07720441  0.62500000  1
  F  F36  1  0.82720441  0.57720441  0.12500000  1
  F  F37  1  0.67279559  0.42279559  0.62500000  1
  F  F38  1  0.17279559  0.07720441  0.87500000  1
  F  F39  1  0.32720441  0.92279559  0.37500000  1
  F  F40  1  0.67279559  0.92279559  0.37500000  1
  F  F41  1  0.82720441  0.07720441  0.87500000  1
  F  F42  1  0.32720441  0.42279559  0.62500000  1
  F  F43  1  0.17279559  0.57720441  0.12500000  1
  F  F44  1  0.32720441  0.07720441  0.62500000  1
  F  F45  1  0.17279559  0.92279559  0.12500000  1
  F  F46  1  0.67279559  0.57720441  0.37500000  1
  F  F47  1  0.82720441  0.42279559  0.87500000  1
  Li  Li48  1  0.00000000  0.25000000  0.26238319  1
  Li  Li49  1  0.00000000  0.75000000  0.51238319  1
  Li  Li50  1  0.50000000  0.25000000  0.23761681  1
  Li  Li51  1  0.50000000  0.75000000  0.98761681  1
  Li  Li52  1  0.50000000  0.75000000  0.76238319  1
  Li  Li53  1  0.50000000  0.25000000  0.01238319  1
  Li  Li54  1  0.00000000  0.75000000  0.73761681  1
  Li  Li55  1  0.00000000  0.25000000  0.48761681  1
  Si  Si56  1  0.00000000  0.25000000  0.78286364  1
  Si  Si57  1  0.00000000  0.75000000  0.03286364  1
  Si  Si58  1  0.50000000  0.25000000  0.71713636  1
  Si  Si59  1  0.50000000  0.75000000  0.46713636  1
  Si  Si60  1  0.50000000  0.75000000  0.28286364  1
  Si  Si61  1  0.50000000  0.25000000  0.53286364  1
  Si  Si62  1  0.00000000  0.75000000  0.21713636  1
  Si  Si63  1  0.00000000  0.25000000  0.96713636  1
  Si  Si64  1  0.00000000  0.00000000  0.00000000  1
  Si  Si65  1  0.50000000  0.00000000  0.50000000  1
  Si  Si66  1  0.25000000  0.75000000  0.25000000  1
  Si  Si67  1  0.25000000  0.25000000  0.75000000  1
  Si  Si68  1  0.50000000  0.50000000  0.50000000  1
  Si  Si69  1  0.00000000  0.50000000  0.00000000  1
  Si  Si70  1  0.75000000  0.25000000  0.75000000  1
  Si  Si71  1  0.75000000  0.75000000  0.25000000  1
  Te  Te72  1  0.00000000  0.75000000  0.12500000  1
  Te  Te73  1  0.50000000  0.75000000  0.37500000  1
  Te  Te74  1  0.50000000  0.25000000  0.62500000  1
  Te  Te75  1  0.00000000  0.25000000  0.87500000  1
  Te  Te76  1  0.00000000  0.00000000  0.50000000  1
  Te  Te77  1  0.50000000  0.00000000  0.00000000  1
  Te  Te78  1  0.25000000  0.75000000  0.75000000  1
  Te  Te79  1  0.25000000  0.25000000  0.25000000  1
  Te  Te80  1  0.50000000  0.50000000  0.00000000  1
  Te  Te81  1  0.00000000  0.50000000  0.50000000  1
  Te  Te82  1  0.75000000  0.25000000  0.25000000  1
  Te  Te83  1  0.75000000  0.75000000  0.75000000  1
