# generated using pymatgen
data_Li2Y2Cu3P2Se
_symmetry_space_group_name_H-M   'P 1'
_cell_length_a   4.09991059
_cell_length_b   4.41337664
_cell_length_c   6.43815199
_cell_angle_alpha   95.62957195
_cell_angle_beta   101.52137612
_cell_angle_gamma   111.36135698
_symmetry_Int_Tables_number   1
_chemical_formula_structural   Li2Y2Cu3P2Se
_chemical_formula_sum   'Li2 Y2 Cu3 P2 Se1'
_cell_volume   104.42594740
_cell_formula_units_Z   1
loop_
 _symmetry_equiv_pos_site_id
 _symmetry_equiv_pos_as_xyz
  1  'x, y, z'
loop_
 _atom_site_type_symbol
 _atom_site_label
 _atom_site_symmetry_multiplicity
 _atom_site_fract_x
 _atom_site_fract_y
 _atom_site_fract_z
 _atom_site_occupancy
  Y  Y0  1  0.00000000  0.00000000  0.00000000  1
  Y  Y1  1  0.50000000  0.50000000  0.50000000  1
  P  P2  1  0.25000000  0.25000000  0.25000000  1
  P  P3  1  0.75000000  0.25000000  0.00000000  1
  Se  Se4  1  0.25000000  0.75000000  0.50000000  1
  Li  Li5  1  0.50876467  0.47606349  0.92063836  1
  Li  Li6  1  0.43771895  0.41651223  0.55637452  1
  Cu  Cu7  1  0.49401569  0.39729952  0.78475926  1
  Cu  Cu8  1  0.95369560  0.70869202  0.11112286  1
  Cu  Cu9  1  0.62267005  0.72592481  0.48787351  1
