# generated using pymatgen
data_Li2Ca3F8
_symmetry_space_group_name_H-M   'P 1'
_cell_length_a   14.46802297
_cell_length_b   14.46802297
_cell_length_c   8.43590022
_cell_angle_alpha   90.00000000
_cell_angle_beta   90.00000000
_cell_angle_gamma   120.00000000
_symmetry_Int_Tables_number   1
_chemical_formula_structural   Li2Ca3F8
_chemical_formula_sum   'Li16 Ca24 F64'
_cell_volume   1529.25688723
_cell_formula_units_Z   8
loop_
 _symmetry_equiv_pos_site_id
 _symmetry_equiv_pos_as_xyz
  1  'x, y, z'
loop_
 _atom_site_type_symbol
 _atom_site_label
 _atom_site_symmetry_multiplicity
 _atom_site_fract_x
 _atom_site_fract_y
 _atom_site_fract_z
 _atom_site_occupancy
  Ca  Ca0  1  0.09744051  0.00000000  0.00000000  1
  Ca  Ca1  1  0.00000000  0.09744051  0.00000000  1
  Ca  Ca2  1  0.90255949  0.90255949  -0.00000000  1
  Ca  Ca3  1  0.89186948  0.07657680  0.77790384  1
  Ca  Ca4  1  0.92342320  0.81529268  0.77790384  1
  Ca  Ca5  1  0.18470732  0.10813052  0.77790384  1
  Ca  Ca6  1  0.89186948  0.07657680  0.22209616  1
  Ca  Ca7  1  0.92342320  0.81529268  0.22209616  1
  Ca  Ca8  1  0.18470732  0.10813052  0.22209616  1
  Ca  Ca9  1  0.07657680  0.89186948  0.22209616  1
  Ca  Ca10  1  0.81529268  0.92342320  0.22209616  1
  Ca  Ca11  1  0.10813052  0.18470732  0.22209616  1
  Ca  Ca12  1  0.07657680  0.89186948  0.77790384  1
  Ca  Ca13  1  0.81529268  0.92342320  0.77790384  1
  Ca  Ca14  1  0.10813052  0.18470732  0.77790384  1
  Ca  Ca15  1  0.33897648  -0.00000000  0.50000000  1
  Ca  Ca16  1  0.00000000  0.33897648  0.50000000  1
  Ca  Ca17  1  0.66102352  0.66102352  0.50000000  1
  Ca  Ca18  1  0.33333333  0.66666667  0.50000000  1
  Ca  Ca19  1  0.66666667  0.33333333  0.50000000  1
  Ca  Ca20  1  0.33333333  0.66666667  0.72931746  1
  Ca  Ca21  1  0.33333333  0.66666667  0.27068254  1
  Ca  Ca22  1  0.66666667  0.33333333  0.27068254  1
  Ca  Ca23  1  0.66666667  0.33333333  0.72931746  1
  F  F24  1  0.56406286  0.00000000  0.54269216  1
  F  F25  1  0.00000000  0.56406286  0.54269216  1
  F  F26  1  0.43593714  0.43593714  0.54269216  1
  F  F27  1  0.56406286  0.00000000  0.45730784  1
  F  F28  1  0.00000000  0.56406286  0.45730784  1
  F  F29  1  0.43593714  0.43593714  0.45730784  1
  F  F30  1  0.21532851  0.25949570  0.35435497  1
  F  F31  1  -0.25949570  -0.04416720  0.35435497  1
  F  F32  1  0.04416720  -0.21532851  0.35435497  1
  F  F33  1  0.21532851  0.25949570  -0.35435497  1
  F  F34  1  -0.25949570  -0.04416720  -0.35435497  1
  F  F35  1  0.04416720  -0.21532851  -0.35435497  1
  F  F36  1  0.25949570  0.21532851  -0.35435497  1
  F  F37  1  -0.04416720  -0.25949570  -0.35435497  1
  F  F38  1  -0.21532851  0.04416720  -0.35435497  1
  F  F39  1  0.25949570  0.21532851  0.35435497  1
  F  F40  1  -0.04416720  -0.25949570  0.35435497  1
  F  F41  1  -0.21532851  0.04416720  0.35435497  1
  F  F42  1  0.00000000  0.00000000  0.92099818  1
  F  F43  1  0.00000000  0.00000000  0.07900182  1
  F  F44  1  0.33333333  0.66666667  0.87048892  1
  F  F45  1  0.33333333  0.66666667  0.12951108  1
  F  F46  1  0.66666667  0.33333333  0.12951108  1
  F  F47  1  0.66666667  0.33333333  0.87048892  1
  F  F48  1  0.54176541  0.76439788  0.50000000  1
  F  F49  1  0.23560212  0.77736753  0.50000000  1
  F  F50  1  0.22263247  0.45823459  0.50000000  1
  F  F51  1  0.76439788  0.54176541  0.50000000  1
  F  F52  1  0.77736753  0.23560212  0.50000000  1
  F  F53  1  0.45823459  0.22263247  0.50000000  1
  F  F54  1  0.62262708  0.00000000  0.12407078  1
  F  F55  1  0.00000000  0.62262708  0.12407078  1
  F  F56  1  0.37737292  0.37737292  0.12407078  1
  F  F57  1  0.62262708  0.00000000  0.87592922  1
  F  F58  1  0.00000000  0.62262708  0.87592922  1
  F  F59  1  0.37737292  0.37737292  0.87592922  1
  F  F60  1  0.65109145  0.78642512  0.28789045  1
  F  F61  1  0.21357488  0.86466633  0.28789045  1
  F  F62  1  0.13533367  0.34890855  0.28789045  1
  F  F63  1  0.65109145  0.78642512  0.71210955  1
  F  F64  1  0.21357488  0.86466633  0.71210955  1
  F  F65  1  0.13533367  0.34890855  0.71210955  1
  F  F66  1  0.78642512  0.65109145  0.71210955  1
  F  F67  1  0.86466633  0.21357488  0.71210955  1
  F  F68  1  0.34890855  0.13533367  0.71210955  1
  F  F69  1  0.78642512  0.65109145  0.28789045  1
  F  F70  1  0.86466633  0.21357488  0.28789045  1
  F  F71  1  0.34890855  0.13533367  0.28789045  1
  F  F72  1  0.56298338  0.94886258  0.18836882  1
  F  F73  1  0.05113742  0.61412081  0.18836882  1
  F  F74  1  0.38587919  0.43701662  0.18836882  1
  F  F75  1  0.56298338  0.94886258  0.81163118  1
  F  F76  1  0.05113742  0.61412081  0.81163118  1
  F  F77  1  0.38587919  0.43701662  0.81163118  1
  F  F78  1  0.94886258  0.56298338  0.81163118  1
  F  F79  1  0.61412081  0.05113742  0.81163118  1
  F  F80  1  0.43701662  0.38587919  0.81163118  1
  F  F81  1  0.94886258  0.56298338  0.18836882  1
  F  F82  1  0.61412081  0.05113742  0.18836882  1
  F  F83  1  0.43701662  0.38587919  0.18836882  1
  F  F84  1  0.33333333  0.66666667  0.00000000  1
  F  F85  1  0.66666667  0.33333333  0.00000000  1
  F  F86  1  0.00000000  0.00000000  0.76312914  1
  F  F87  1  0.00000000  0.00000000  0.23687086  1
  Li  Li88  1  0.00000000  0.00000000  0.50000000  1
  Li  Li89  1  0.87411668  0.59434587  0.28269383  1
  Li  Li90  1  0.40565413  0.27977081  0.28269383  1
  Li  Li91  1  0.72022919  0.12588332  0.28269383  1
  Li  Li92  1  0.87411668  0.59434587  0.71730617  1
  Li  Li93  1  0.40565413  0.27977081  0.71730617  1
  Li  Li94  1  0.72022919  0.12588332  0.71730617  1
  Li  Li95  1  0.59434587  0.87411668  0.71730617  1
  Li  Li96  1  0.27977081  0.40565413  0.71730617  1
  Li  Li97  1  0.12588332  0.72022919  0.71730617  1
  Li  Li98  1  0.59434587  0.87411668  0.28269383  1
  Li  Li99  1  0.27977081  0.40565413  0.28269383  1
  Li  Li100  1  0.12588332  0.72022919  0.28269383  1
  Li  Li101  1  0.70944031  0.00000000  0.50000000  1
  Li  Li102  1  0.00000000  0.70944031  0.50000000  1
  Li  Li103  1  0.29055969  0.29055969  0.50000000  1
