# generated using pymatgen
data_LiF
_symmetry_space_group_name_H-M   'P 1'
_cell_length_a   7.71458238
_cell_length_b   7.34715440
_cell_length_c   10.35197846
_cell_angle_alpha   90.00000000
_cell_angle_beta   90.00000000
_cell_angle_gamma   90.00000000
_symmetry_Int_Tables_number   1
_chemical_formula_structural   LiF
_chemical_formula_sum   'Li24 F24'
_cell_volume   586.75249822
_cell_formula_units_Z   24
loop_
 _symmetry_equiv_pos_site_id
 _symmetry_equiv_pos_as_xyz
  1  'x, y, z'
loop_
 _atom_site_type_symbol
 _atom_site_label
 _atom_site_symmetry_multiplicity
 _atom_site_fract_x
 _atom_site_fract_y
 _atom_site_fract_z
 _atom_site_occupancy
  F  F0  1  0.06808981  0.25000000  0.20039595  1
  F  F1  1  0.43191019  0.75000000  0.70039595  1
  F  F2  1  0.93191019  0.75000000  0.79960405  1
  F  F3  1  0.56808981  0.25000000  0.29960405  1
  F  F4  1  0.00000000  0.00000000  0.50000000  1
  F  F5  1  0.50000000  0.00000000  0.00000000  1
  F  F6  1  0.00000000  0.50000000  0.50000000  1
  F  F7  1  0.50000000  0.50000000  -0.00000000  1
  F  F8  1  0.23920644  0.30255358  0.92794381  1
  F  F9  1  0.26079356  0.69744642  0.42794381  1
  F  F10  1  0.76079356  0.80255358  0.07205619  1
  F  F11  1  0.73920644  0.19744642  0.57205619  1
  F  F12  1  0.76079356  0.69744642  0.07205619  1
  F  F13  1  0.73920644  0.30255358  0.57205619  1
  F  F14  1  0.23920644  0.19744642  0.92794381  1
  F  F15  1  0.26079356  0.80255358  0.42794381  1
  F  F16  1  0.27049279  0.52894268  0.08943265  1
  F  F17  1  0.22950721  0.47105732  0.58943265  1
  F  F18  1  0.72950721  0.02894268  0.91056735  1
  F  F19  1  0.77049279  0.97105732  0.41056735  1
  F  F20  1  0.72950721  0.47105732  0.91056735  1
  F  F21  1  0.77049279  0.52894268  0.41056735  1
  F  F22  1  0.27049279  0.97105732  0.08943265  1
  F  F23  1  0.22950721  0.02894268  0.58943265  1
  Li  Li24  1  0.00000000  0.00000000  0.00000000  1
  Li  Li25  1  0.50000000  0.00000000  0.50000000  1
  Li  Li26  1  0.00000000  0.50000000  -0.00000000  1
  Li  Li27  1  0.50000000  0.50000000  0.50000000  1
  Li  Li28  1  0.26936932  0.25000000  0.26981568  1
  Li  Li29  1  0.23063068  0.75000000  0.76981568  1
  Li  Li30  1  0.73063068  0.75000000  0.73018432  1
  Li  Li31  1  0.76936932  0.25000000  0.23018432  1
  Li  Li32  1  0.90423520  0.42219051  0.46639887  1
  Li  Li33  1  -0.40423520  -0.42219051  0.96639887  1
  Li  Li34  1  -0.90423520  0.92219051  -0.46639887  1
  Li  Li35  1  1.40423520  0.07780949  0.03360113  1
  Li  Li36  1  -0.90423520  -0.42219051  -0.46639887  1
  Li  Li37  1  1.40423520  0.42219051  0.03360113  1
  Li  Li38  1  0.90423520  0.07780949  0.46639887  1
  Li  Li39  1  -0.40423520  0.92219051  0.96639887  1
  Li  Li40  1  0.26138617  0.02066940  0.76200380  1
  Li  Li41  1  0.23861383  0.97933060  0.26200380  1
  Li  Li42  1  0.73861383  0.52066940  0.23799620  1
  Li  Li43  1  0.76138617  0.47933060  0.73799620  1
  Li  Li44  1  0.73861383  0.97933060  0.23799620  1
  Li  Li45  1  0.76138617  0.02066940  0.73799620  1
  Li  Li46  1  0.26138617  0.47933060  0.76200380  1
  Li  Li47  1  0.23861383  0.52066940  0.26200380  1
