# generated using pymatgen
data_LiF
_symmetry_space_group_name_H-M   'P 1'
_cell_length_a   5.91143818
_cell_length_b   8.17621343
_cell_length_c   9.47859454
_cell_angle_alpha   90.00000000
_cell_angle_beta   90.00000000
_cell_angle_gamma   90.00000000
_symmetry_Int_Tables_number   1
_chemical_formula_structural   LiF
_chemical_formula_sum   'Li24 F24'
_cell_volume   458.13061887
_cell_formula_units_Z   24
loop_
 _symmetry_equiv_pos_site_id
 _symmetry_equiv_pos_as_xyz
  1  'x, y, z'
loop_
 _atom_site_type_symbol
 _atom_site_label
 _atom_site_symmetry_multiplicity
 _atom_site_fract_x
 _atom_site_fract_y
 _atom_site_fract_z
 _atom_site_occupancy
  F  F0  1  0.71076233  0.69250978  0.77463284  1
  F  F1  1  0.78923767  0.30749022  0.27463284  1
  F  F2  1  0.28923767  0.19250978  0.22536716  1
  F  F3  1  0.21076233  0.80749022  0.72536716  1
  F  F4  1  0.28923767  0.30749022  0.22536716  1
  F  F5  1  0.21076233  0.69250978  0.72536716  1
  F  F6  1  0.71076233  0.80749022  0.77463284  1
  F  F7  1  0.78923767  0.19250978  0.27463284  1
  F  F8  1  0.46464238  0.25000000  0.13220070  1
  F  F9  1  0.03535762  0.75000000  0.63220070  1
  F  F10  1  0.53535762  0.75000000  0.86779930  1
  F  F11  1  0.96464238  0.25000000  0.36779930  1
  F  F12  1  0.66721575  0.50421451  0.72743972  1
  F  F13  1  0.83278425  0.49578549  0.22743972  1
  F  F14  1  0.33278425  0.00421451  0.27256028  1
  F  F15  1  0.16721575  0.99578549  0.77256028  1
  F  F16  1  0.33278425  0.49578549  0.27256028  1
  F  F17  1  0.16721575  0.50421451  0.77256028  1
  F  F18  1  0.66721575  0.99578549  0.72743972  1
  F  F19  1  0.83278425  0.00421451  0.22743972  1
  F  F20  1  0.00000000  0.00000000  0.50000000  1
  F  F21  1  0.50000000  0.00000000  0.00000000  1
  F  F22  1  0.00000000  0.50000000  0.50000000  1
  F  F23  1  0.50000000  0.50000000  0.00000000  1
  Li  Li24  1  0.76006642  0.25000000  0.41121686  1
  Li  Li25  1  0.73993358  0.75000000  0.91121686  1
  Li  Li26  1  0.23993358  0.75000000  0.58878314  1
  Li  Li27  1  0.26006642  0.25000000  0.08878314  1
  Li  Li28  1  0.75963556  0.25000000  0.13135281  1
  Li  Li29  1  0.74036444  0.75000000  0.63135281  1
  Li  Li30  1  0.24036444  0.75000000  0.86864719  1
  Li  Li31  1  0.25963556  0.25000000  0.36864719  1
  Li  Li32  1  0.00000000  0.00000000  0.00000000  1
  Li  Li33  1  0.50000000  0.00000000  0.50000000  1
  Li  Li34  1  0.00000000  0.50000000  0.00000000  1
  Li  Li35  1  0.50000000  0.50000000  0.50000000  1
  Li  Li36  1  0.25582245  0.57511233  0.88826183  1
  Li  Li37  1  0.24417755  -0.57511233  1.38826183  1
  Li  Li38  1  -0.25582245  1.07511233  -0.88826183  1
  Li  Li39  1  0.75582245  -0.07511233  -0.38826183  1
  Li  Li40  1  -0.25582245  -0.57511233  -0.88826183  1
  Li  Li41  1  0.75582245  0.57511233  -0.38826183  1
  Li  Li42  1  0.25582245  -0.07511233  0.88826183  1
  Li  Li43  1  0.24417755  1.07511233  1.38826183  1
  Li  Li44  1  0.99255449  0.25000000  0.72256479  1
  Li  Li45  1  0.50744551  0.75000000  0.22256479  1
  Li  Li46  1  0.00744551  0.75000000  0.27743521  1
  Li  Li47  1  0.49255449  0.25000000  0.77743521  1
