# generated using pymatgen
data_LiF
_symmetry_space_group_name_H-M   'P 1'
_cell_length_a   8.88638013
_cell_length_b   15.33367109
_cell_length_c   5.21713589
_cell_angle_alpha   90.00000000
_cell_angle_beta   90.00000000
_cell_angle_gamma   90.00000000
_symmetry_Int_Tables_number   1
_chemical_formula_structural   LiF
_chemical_formula_sum   'Li24 F24'
_cell_volume   710.89126759
_cell_formula_units_Z   24
loop_
 _symmetry_equiv_pos_site_id
 _symmetry_equiv_pos_as_xyz
  1  'x, y, z'
loop_
 _atom_site_type_symbol
 _atom_site_label
 _atom_site_symmetry_multiplicity
 _atom_site_fract_x
 _atom_site_fract_y
 _atom_site_fract_z
 _atom_site_occupancy
  F  F0  1  0.04341713  0.28686171  0.35985075  1
  F  F1  1  0.45658287  0.71313829  0.85985075  1
  F  F2  1  0.95658287  0.78686171  0.64014925  1
  F  F3  1  0.54341713  0.21313829  0.14014925  1
  F  F4  1  0.95658287  0.71313829  0.64014925  1
  F  F5  1  0.54341713  0.28686171  0.14014925  1
  F  F6  1  0.04341713  0.21313829  0.35985075  1
  F  F7  1  0.45658287  0.78686171  0.85985075  1
  F  F8  1  0.33689475  0.16799255  0.19594302  1
  F  F9  1  0.16310525  0.83200745  0.69594302  1
  F  F10  1  0.66310525  0.66799255  0.80405698  1
  F  F11  1  0.83689475  0.33200745  0.30405698  1
  F  F12  1  0.66310525  0.83200745  0.80405698  1
  F  F13  1  0.83689475  0.16799255  0.30405698  1
  F  F14  1  0.33689475  0.33200745  0.19594302  1
  F  F15  1  0.16310525  0.66799255  0.69594302  1
  F  F16  1  0.34898332  0.27159115  0.90023241  1
  F  F17  1  0.15101668  0.72840885  0.40023241  1
  F  F18  1  0.65101668  0.77159115  0.09976759  1
  F  F19  1  0.84898332  0.22840885  0.59976759  1
  F  F20  1  0.65101668  0.72840885  0.09976759  1
  F  F21  1  0.84898332  0.27159115  0.59976759  1
  F  F22  1  0.34898332  0.22840885  0.90023241  1
  F  F23  1  0.15101668  0.77159115  0.40023241  1
  Li  Li24  1  0.19207397  0.54942032  0.24402700  1
  Li  Li25  1  0.30792603  -0.54942032  0.74402700  1
  Li  Li26  1  -0.19207397  1.04942032  -0.24402700  1
  Li  Li27  1  0.69207397  -0.04942032  0.25597300  1
  Li  Li28  1  -0.19207397  -0.54942032  -0.24402700  1
  Li  Li29  1  0.69207397  0.54942032  0.25597300  1
  Li  Li30  1  0.19207397  -0.04942032  0.24402700  1
  Li  Li31  1  0.30792603  1.04942032  0.74402700  1
  Li  Li32  1  0.01953319  0.86003135  0.14722431  1
  Li  Li33  1  0.48046681  0.13996865  0.64722431  1
  Li  Li34  1  0.98046681  0.36003135  0.85277569  1
  Li  Li35  1  0.51953319  0.63996865  0.35277569  1
  Li  Li36  1  0.98046681  0.13996865  0.85277569  1
  Li  Li37  1  0.51953319  0.86003135  0.35277569  1
  Li  Li38  1  0.01953319  0.63996865  0.14722431  1
  Li  Li39  1  0.48046681  0.36003135  0.64722431  1
  Li  Li40  1  0.13345736  0.25000000  0.48156791  1
  Li  Li41  1  0.36654264  0.75000000  0.98156791  1
  Li  Li42  1  0.86654264  0.75000000  0.51843209  1
  Li  Li43  1  0.63345736  0.25000000  0.01843209  1
  Li  Li44  1  0.00000000  0.00000000  0.50000000  1
  Li  Li45  1  0.50000000  0.00000000  0.00000000  1
  Li  Li46  1  0.00000000  0.50000000  0.50000000  1
  Li  Li47  1  0.50000000  0.50000000  0.00000000  1
