# generated using pymatgen
data_Li2Y2As4P2Se
_symmetry_space_group_name_H-M   'P 1'
_cell_length_a   5.34797269
_cell_length_b   5.33542423
_cell_length_c   6.86704281
_cell_angle_alpha   93.98981610
_cell_angle_beta   98.35275179
_cell_angle_gamma   105.49819505
_symmetry_Int_Tables_number   1
_chemical_formula_structural   Li2Y2As4P2Se
_chemical_formula_sum   'Li2 Y2 As4 P2 Se1'
_cell_volume   185.60329985
_cell_formula_units_Z   1
loop_
 _symmetry_equiv_pos_site_id
 _symmetry_equiv_pos_as_xyz
  1  'x, y, z'
loop_
 _atom_site_type_symbol
 _atom_site_label
 _atom_site_symmetry_multiplicity
 _atom_site_fract_x
 _atom_site_fract_y
 _atom_site_fract_z
 _atom_site_occupancy
  Se  Se0  1  0.12500000  0.00000000  0.25000000  1
  P  P1  1  0.00000000  0.00000000  0.00000000  1
  P  P2  1  0.37500000  0.00000000  0.25000000  1
  As  As3  1  0.25000000  0.25000000  0.25000000  1
  As  As4  1  0.00000000  0.25000000  0.12500000  1
  As  As5  1  0.14935498  0.24547271  0.69809718  1
  As  As6  1  0.11925859  0.58620890  0.23912780  1
  Li  Li7  1  0.49037876  0.85049134  0.89778588  1
  Li  Li8  1  0.96989798  0.42980243  0.83143472  1
  Y  Y9  1  0.21275276  0.11897371  0.83927657  1
  Y  Y10  1  0.01913227  0.40709202  0.63066386  1
