# generated using pymatgen
data_LiF
_symmetry_space_group_name_H-M   'P 1'
_cell_length_a   8.88584503
_cell_length_b   10.01770079
_cell_length_c   7.72427598
_cell_angle_alpha   90.00000000
_cell_angle_beta   90.00000000
_cell_angle_gamma   90.00000000
_symmetry_Int_Tables_number   1
_chemical_formula_structural   LiF
_chemical_formula_sum   'Li24 F24'
_cell_volume   687.58211716
_cell_formula_units_Z   24
loop_
 _symmetry_equiv_pos_site_id
 _symmetry_equiv_pos_as_xyz
  1  'x, y, z'
loop_
 _atom_site_type_symbol
 _atom_site_label
 _atom_site_symmetry_multiplicity
 _atom_site_fract_x
 _atom_site_fract_y
 _atom_site_fract_z
 _atom_site_occupancy
  F  F0  1  0.65114618  0.30542573  0.38066127  1
  F  F1  1  0.84885382  0.69457427  0.88066127  1
  F  F2  1  0.34885382  0.80542573  0.61933873  1
  F  F3  1  0.15114618  0.19457427  0.11933873  1
  F  F4  1  0.34885382  0.69457427  0.61933873  1
  F  F5  1  0.15114618  0.30542573  0.11933873  1
  F  F6  1  0.65114618  0.19457427  0.38066127  1
  F  F7  1  0.84885382  0.80542573  0.88066127  1
  F  F8  1  0.09322464  0.66126078  0.32921882  1
  F  F9  1  0.40677536  0.33873922  0.82921882  1
  F  F10  1  0.90677536  0.16126078  0.67078118  1
  F  F11  1  0.59322464  0.83873922  0.17078118  1
  F  F12  1  0.90677536  0.33873922  0.67078118  1
  F  F13  1  0.59322464  0.66126078  0.17078118  1
  F  F14  1  0.09322464  0.83873922  0.32921882  1
  F  F15  1  0.40677536  0.16126078  0.82921882  1
  F  F16  1  0.01856936  0.70009314  0.08407456  1
  F  F17  1  0.48143064  0.29990686  0.58407456  1
  F  F18  1  0.98143064  0.20009314  0.91592544  1
  F  F19  1  0.51856936  0.79990686  0.41592544  1
  F  F20  1  0.98143064  0.29990686  0.91592544  1
  F  F21  1  0.51856936  0.70009314  0.41592544  1
  F  F22  1  0.01856936  0.79990686  0.08407456  1
  F  F23  1  0.48143064  0.20009314  0.58407456  1
  Li  Li24  1  0.28720438  0.66253899  0.44832949  1
  Li  Li25  1  0.21279562  -0.66253899  0.94832949  1
  Li  Li26  1  -0.28720438  1.16253899  -0.44832949  1
  Li  Li27  1  0.78720438  -0.16253899  0.05167051  1
  Li  Li28  1  -0.28720438  -0.66253899  -0.44832949  1
  Li  Li29  1  0.78720438  0.66253899  0.05167051  1
  Li  Li30  1  0.28720438  -0.16253899  0.44832949  1
  Li  Li31  1  0.21279562  1.16253899  0.94832949  1
  Li  Li32  1  0.61337575  0.64940795  0.62348290  1
  Li  Li33  1  0.88662425  0.35059205  0.12348290  1
  Li  Li34  1  0.38662425  0.14940795  0.37651710  1
  Li  Li35  1  0.11337575  0.85059205  0.87651710  1
  Li  Li36  1  0.38662425  0.35059205  0.37651710  1
  Li  Li37  1  0.11337575  0.64940795  0.87651710  1
  Li  Li38  1  0.61337575  0.85059205  0.62348290  1
  Li  Li39  1  0.88662425  0.14940795  0.12348290  1
  Li  Li40  1  0.44012599  0.17530531  0.00744188  1
  Li  Li41  1  0.05987401  0.82469469  0.50744188  1
  Li  Li42  1  0.55987401  0.67530531  0.99255812  1
  Li  Li43  1  0.94012599  0.32469469  0.49255812  1
  Li  Li44  1  0.55987401  0.82469469  0.99255812  1
  Li  Li45  1  0.94012599  0.17530531  0.49255812  1
  Li  Li46  1  0.44012599  0.32469469  0.00744188  1
  Li  Li47  1  0.05987401  0.67530531  0.50744188  1
