# generated using pymatgen
data_LiYCu3P2Se
_symmetry_space_group_name_H-M   'P 1'
_cell_length_a   4.43434552
_cell_length_b   4.60256246
_cell_length_c   6.47176090
_cell_angle_alpha   95.91664667
_cell_angle_beta   100.58894578
_cell_angle_gamma   110.16364241
_symmetry_Int_Tables_number   1
_chemical_formula_structural   LiYCu3P2Se
_chemical_formula_sum   'Li1 Y1 Cu3 P2 Se1'
_cell_volume   119.87905726
_cell_formula_units_Z   1
loop_
 _symmetry_equiv_pos_site_id
 _symmetry_equiv_pos_as_xyz
  1  'x, y, z'
loop_
 _atom_site_type_symbol
 _atom_site_label
 _atom_site_symmetry_multiplicity
 _atom_site_fract_x
 _atom_site_fract_y
 _atom_site_fract_z
 _atom_site_occupancy
  P  P0  1  0.00000000  0.00000000  0.00000000  1
  P  P1  1  0.50000000  0.50000000  0.50000000  1
  Se  Se2  1  0.25000000  0.25000000  0.25000000  1
  Li  Li3  1  0.75000000  0.25000000  0.00000000  1
  Y  Y4  1  0.25000000  0.75000000  0.50000000  1
  Cu  Cu5  1  0.80058299  0.60427992  0.60370621  1
  Cu  Cu6  1  0.50969259  0.66817017  0.94498109  1
  Cu  Cu7  1  0.24328257  0.54281479  0.89597175  1
