# generated using pymatgen
data_LiY2Cu3MoP
_symmetry_space_group_name_H-M   'P 1'
_cell_length_a   4.91821326
_cell_length_b   5.03914151
_cell_length_c   6.87386490
_cell_angle_alpha   94.81946216
_cell_angle_beta   99.89362829
_cell_angle_gamma   108.41352038
_symmetry_Int_Tables_number   1
_chemical_formula_structural   LiY2Cu3MoP
_chemical_formula_sum   'Li1 Y2 Cu3 Mo1 P1'
_cell_volume   157.48058397
_cell_formula_units_Z   1
loop_
 _symmetry_equiv_pos_site_id
 _symmetry_equiv_pos_as_xyz
  1  'x, y, z'
loop_
 _atom_site_type_symbol
 _atom_site_label
 _atom_site_symmetry_multiplicity
 _atom_site_fract_x
 _atom_site_fract_y
 _atom_site_fract_z
 _atom_site_occupancy
  Y  Y0  1  0.12500000  0.00000000  0.25000000  1
  Y  Y1  1  0.00000000  0.00000000  0.00000000  1
  P  P2  1  0.37500000  0.00000000  0.25000000  1
  Mo  Mo3  1  0.25000000  0.25000000  0.25000000  1
  Li  Li4  1  0.00000000  0.25000000  0.12500000  1
  Cu  Cu5  1  0.98352076  0.83097337  0.16027710  1
  Cu  Cu6  1  0.56635073  0.63609095  0.15929718  1
  Cu  Cu7  1  0.71062334  0.64863738  0.59695689  1
