# generated using pymatgen
data_LiF
_symmetry_space_group_name_H-M   'P 1'
_cell_length_a   8.62159555
_cell_length_b   12.31250876
_cell_length_c   5.14504913
_cell_angle_alpha   90.00000000
_cell_angle_beta   90.00000000
_cell_angle_gamma   90.00000000
_symmetry_Int_Tables_number   1
_chemical_formula_structural   LiF
_chemical_formula_sum   'Li24 F24'
_cell_volume   546.16482214
_cell_formula_units_Z   24
loop_
 _symmetry_equiv_pos_site_id
 _symmetry_equiv_pos_as_xyz
  1  'x, y, z'
loop_
 _atom_site_type_symbol
 _atom_site_label
 _atom_site_symmetry_multiplicity
 _atom_site_fract_x
 _atom_site_fract_y
 _atom_site_fract_z
 _atom_site_occupancy
  F  F0  1  0.46154660  0.15474581  0.83583105  1
  F  F1  1  0.03845340  0.84525419  0.33583105  1
  F  F2  1  0.53845340  0.65474581  0.16416895  1
  F  F3  1  0.96154660  0.34525419  0.66416895  1
  F  F4  1  0.53845340  0.84525419  0.16416895  1
  F  F5  1  0.96154660  0.15474581  0.66416895  1
  F  F6  1  0.46154660  0.34525419  0.83583105  1
  F  F7  1  0.03845340  0.65474581  0.33583105  1
  F  F8  1  0.00000000  0.00000000  0.00000000  1
  F  F9  1  0.50000000  0.00000000  0.50000000  1
  F  F10  1  0.00000000  0.50000000  0.00000000  1
  F  F11  1  0.50000000  0.50000000  0.50000000  1
  F  F12  1  0.76078214  0.56136500  0.95973718  1
  F  F13  1  0.73921786  0.43863500  0.45973718  1
  F  F14  1  0.23921786  0.06136500  0.04026282  1
  F  F15  1  0.26078214  0.93863500  0.54026282  1
  F  F16  1  0.23921786  0.43863500  0.04026282  1
  F  F17  1  0.26078214  0.56136500  0.54026282  1
  F  F18  1  0.76078214  0.93863500  0.95973718  1
  F  F19  1  0.73921786  0.06136500  0.45973718  1
  F  F20  1  0.08297892  0.25000000  0.45206444  1
  F  F21  1  0.41702108  0.75000000  0.95206444  1
  F  F22  1  0.91702108  0.75000000  0.54793556  1
  F  F23  1  0.58297892  0.25000000  0.04793556  1
  Li  Li24  1  0.52421084  0.66989234  0.70804445  1
  Li  Li25  1  -0.02421084  -0.66989234  1.20804445  1
  Li  Li26  1  -0.52421084  1.16989234  -0.70804445  1
  Li  Li27  1  1.02421084  -0.16989234  -0.20804445  1
  Li  Li28  1  -0.52421084  -0.66989234  -0.70804445  1
  Li  Li29  1  1.02421084  0.66989234  -0.20804445  1
  Li  Li30  1  0.52421084  -0.16989234  0.70804445  1
  Li  Li31  1  -0.02421084  1.16989234  1.20804445  1
  Li  Li32  1  0.49624539  0.25000000  0.91809833  1
  Li  Li33  1  0.00375461  0.75000000  0.41809833  1
  Li  Li34  1  0.50375461  0.75000000  0.08190167  1
  Li  Li35  1  0.99624539  0.25000000  0.58190167  1
  Li  Li36  1  0.08644930  0.97152661  0.45348208  1
  Li  Li37  1  0.41355070  0.02847339  0.95348208  1
  Li  Li38  1  0.91355070  0.47152661  0.54651792  1
  Li  Li39  1  0.58644930  0.52847339  0.04651792  1
  Li  Li40  1  0.91355070  0.02847339  0.54651792  1
  Li  Li41  1  0.58644930  0.97152661  0.04651792  1
  Li  Li42  1  0.08644930  0.52847339  0.45348208  1
  Li  Li43  1  0.41355070  0.47152661  0.95348208  1
  Li  Li44  1  0.29098081  0.25000000  0.61476074  1
  Li  Li45  1  0.20901919  0.75000000  0.11476074  1
  Li  Li46  1  0.70901919  0.75000000  0.38523926  1
  Li  Li47  1  0.79098081  0.25000000  0.88523926  1
