# generated using pymatgen
data_LiF
_symmetry_space_group_name_H-M   'P 1'
_cell_length_a   7.77136214
_cell_length_b   7.34510533
_cell_length_c   7.26641198
_cell_angle_alpha   90.00000000
_cell_angle_beta   90.00000000
_cell_angle_gamma   90.00000000
_symmetry_Int_Tables_number   1
_chemical_formula_structural   LiF
_chemical_formula_sum   'Li14 F14'
_cell_volume   414.77750280
_cell_formula_units_Z   14
loop_
 _symmetry_equiv_pos_site_id
 _symmetry_equiv_pos_as_xyz
  1  'x, y, z'
loop_
 _atom_site_type_symbol
 _atom_site_label
 _atom_site_symmetry_multiplicity
 _atom_site_fract_x
 _atom_site_fract_y
 _atom_site_fract_z
 _atom_site_occupancy
  F  F0  1  0.84928632  0.01265953  0.32690035  1
  F  F1  1  -0.84928632  -0.01265953  0.32690035  1
  F  F2  1  -0.34928632  0.51265953  -0.32690035  1
  F  F3  1  1.34928632  0.48734047  -0.32690035  1
  F  F4  1  -0.84928632  -0.01265953  -0.32690035  1
  F  F5  1  0.84928632  0.01265953  -0.32690035  1
  F  F6  1  1.34928632  0.48734047  0.32690035  1
  F  F7  1  -0.34928632  0.51265953  0.32690035  1
  F  F8  1  0.57682811  0.69905941  -0.00000000  1
  F  F9  1  0.42317189  0.30094059  0.00000000  1
  F  F10  1  0.92317189  0.19905941  0.00000000  1
  F  F11  1  0.07682811  0.80094059  0.00000000  1
  F  F12  1  0.00000000  0.50000000  0.00000000  1
  F  F13  1  0.50000000  0.00000000  0.00000000  1
  Li  Li14  1  0.70856120  0.72813547  0.50000000  1
  Li  Li15  1  0.29143880  0.27186453  0.50000000  1
  Li  Li16  1  0.79143880  0.22813547  0.50000000  1
  Li  Li17  1  0.20856120  0.77186453  0.50000000  1
  Li  Li18  1  0.23379668  0.16883741  0.81237154  1
  Li  Li19  1  0.76620332  0.83116259  0.81237154  1
  Li  Li20  1  0.26620332  0.66883741  0.18762846  1
  Li  Li21  1  0.73379668  0.33116259  0.18762846  1
  Li  Li22  1  0.76620332  0.83116259  0.18762846  1
  Li  Li23  1  0.23379668  0.16883741  0.18762846  1
  Li  Li24  1  0.73379668  0.33116259  0.81237154  1
  Li  Li25  1  0.26620332  0.66883741  0.81237154  1
  Li  Li26  1  0.00000000  0.00000000  0.50000000  1
  Li  Li27  1  0.50000000  0.50000000  0.50000000  1
