# generated using pymatgen
data_LiF
_symmetry_space_group_name_H-M   'P 1'
_cell_length_a   19.26963575
_cell_length_b   19.26963575
_cell_length_c   8.77784279
_cell_angle_alpha   90.00000000
_cell_angle_beta   90.00000000
_cell_angle_gamma   120.00000000
_symmetry_Int_Tables_number   1
_chemical_formula_structural   LiF
_chemical_formula_sum   'Li108 F108'
_cell_volume   2822.70466461
_cell_formula_units_Z   108
loop_
 _symmetry_equiv_pos_site_id
 _symmetry_equiv_pos_as_xyz
  1  'x, y, z'
loop_
 _atom_site_type_symbol
 _atom_site_label
 _atom_site_symmetry_multiplicity
 _atom_site_fract_x
 _atom_site_fract_y
 _atom_site_fract_z
 _atom_site_occupancy
  F  F0  1  0.00000000  0.00000000  0.25000000  1
  F  F1  1  0.00000000  0.00000000  0.75000000  1
  F  F2  1  0.66666667  0.33333333  0.58333333  1
  F  F3  1  0.66666667  0.33333333  0.08333333  1
  F  F4  1  0.33333333  0.66666667  0.91666667  1
  F  F5  1  0.33333333  0.66666667  0.41666667  1
  F  F6  1  0.69628605  0.29710479  0.34993343  1
  F  F7  1  0.70289521  0.39918126  0.34993343  1
  F  F8  1  0.60081874  0.30371395  0.34993343  1
  F  F9  1  0.29710479  0.69628605  0.15006657  1
  F  F10  1  0.39918126  0.70289521  0.15006657  1
  F  F11  1  0.30371395  0.60081874  0.15006657  1
  F  F12  1  0.30371395  0.70289521  0.65006657  1
  F  F13  1  0.29710479  0.60081874  0.65006657  1
  F  F14  1  0.39918126  0.69628605  0.65006657  1
  F  F15  1  0.70289521  0.30371395  0.84993343  1
  F  F16  1  0.60081874  0.29710479  0.84993343  1
  F  F17  1  0.69628605  0.39918126  0.84993343  1
  F  F18  1  0.36295272  0.63043813  0.68326677  1
  F  F19  1  0.36956187  0.73251459  0.68326677  1
  F  F20  1  0.26748541  0.63704728  0.68326677  1
  F  F21  1  0.96377146  0.02961938  0.48339990  1
  F  F22  1  0.06584792  0.03622854  0.48339990  1
  F  F23  1  0.97038062  0.93415208  0.48339990  1
  F  F24  1  0.97038062  0.03622854  0.98339990  1
  F  F25  1  0.96377146  0.93415208  0.98339990  1
  F  F26  1  0.06584792  0.02961938  0.98339990  1
  F  F27  1  0.36956187  0.63704728  0.18326677  1
  F  F28  1  0.26748541  0.63043813  0.18326677  1
  F  F29  1  0.36295272  0.73251459  0.18326677  1
  F  F30  1  0.02961938  0.96377146  0.01660010  1
  F  F31  1  0.03622854  0.06584792  0.01660010  1
  F  F32  1  0.93415208  0.97038062  0.01660010  1
  F  F33  1  0.63043813  0.36295272  0.81673323  1
  F  F34  1  0.73251459  0.36956187  0.81673323  1
  F  F35  1  0.63704728  0.26748541  0.81673323  1
  F  F36  1  0.63704728  0.36956187  0.31673323  1
  F  F37  1  0.63043813  0.26748541  0.31673323  1
  F  F38  1  0.73251459  0.36295272  0.31673323  1
  F  F39  1  0.03622854  0.97038062  0.51660010  1
  F  F40  1  0.93415208  0.96377146  0.51660010  1
  F  F41  1  0.02961938  0.06584792  0.51660010  1
  F  F42  1  0.09996865  0.34600602  0.62899145  1
  F  F43  1  0.65399398  0.75396263  0.62899145  1
  F  F44  1  0.24603737  0.90003135  0.62899145  1
  F  F45  1  0.34600602  0.09996865  0.87100855  1
  F  F46  1  0.75396263  0.65399398  0.87100855  1
  F  F47  1  0.90003135  0.24603737  0.87100855  1
  F  F48  1  0.90003135  0.65399398  0.37100855  1
  F  F49  1  0.34600602  0.24603737  0.37100855  1
  F  F50  1  0.75396263  0.09996865  0.37100855  1
  F  F51  1  0.65399398  0.90003135  0.12899145  1
  F  F52  1  0.24603737  0.34600602  0.12899145  1
  F  F53  1  0.09996865  0.75396263  0.12899145  1
  F  F54  1  0.76663532  0.67933935  0.96232478  1
  F  F55  1  0.32066065  0.08729596  0.96232478  1
  F  F56  1  0.91270404  0.23336468  0.96232478  1
  F  F57  1  0.01267269  0.43330198  0.20434188  1
  F  F58  1  0.42062929  0.98732731  0.20434188  1
  F  F59  1  0.56669802  0.57937071  0.20434188  1
  F  F60  1  0.56669802  0.98732731  0.70434188  1
  F  F61  1  0.01267269  0.57937071  0.70434188  1
  F  F62  1  0.42062929  0.43330198  0.70434188  1
  F  F63  1  0.32066065  0.23336468  0.46232478  1
  F  F64  1  0.91270404  0.67933935  0.46232478  1
  F  F65  1  0.76663532  0.08729596  0.46232478  1
  F  F66  1  0.43330198  0.01267269  0.29565812  1
  F  F67  1  0.98732731  0.42062929  0.29565812  1
  F  F68  1  0.57937071  0.56669802  0.29565812  1
  F  F69  1  0.67933935  0.76663532  0.53767522  1
  F  F70  1  0.08729596  0.32066065  0.53767522  1
  F  F71  1  0.23336468  0.91270404  0.53767522  1
  F  F72  1  0.23336468  0.32066065  0.03767522  1
  F  F73  1  0.67933935  0.91270404  0.03767522  1
  F  F74  1  0.08729596  0.76663532  0.03767522  1
  F  F75  1  0.98732731  0.56669802  0.79565812  1
  F  F76  1  0.57937071  0.01267269  0.79565812  1
  F  F77  1  0.43330198  0.42062929  0.79565812  1
  F  F78  1  0.50000000  0.00000000  -0.00000000  1
  F  F79  1  0.00000000  0.50000000  0.00000000  1
  F  F80  1  0.50000000  0.50000000  0.00000000  1
  F  F81  1  0.00000000  0.50000000  0.50000000  1
  F  F82  1  0.50000000  0.00000000  0.50000000  1
  F  F83  1  0.50000000  0.50000000  0.50000000  1
  F  F84  1  0.16666667  0.33333333  0.33333333  1
  F  F85  1  0.66666667  0.83333333  0.33333333  1
  F  F86  1  0.16666667  0.83333333  0.33333333  1
  F  F87  1  0.66666667  0.83333333  0.83333333  1
  F  F88  1  0.16666667  0.33333333  0.83333333  1
  F  F89  1  0.16666667  0.83333333  0.83333333  1
  F  F90  1  0.83333333  0.66666667  0.66666667  1
  F  F91  1  0.33333333  0.16666667  0.66666667  1
  F  F92  1  0.83333333  0.16666667  0.66666667  1
  F  F93  1  0.33333333  0.16666667  0.16666667  1
  F  F94  1  0.83333333  0.66666667  0.16666667  1
  F  F95  1  0.83333333  0.16666667  0.16666667  1
  F  F96  1  0.00000000  0.00000000  0.14540534  1
  F  F97  1  0.00000000  0.00000000  0.35459466  1
  F  F98  1  0.00000000  0.00000000  0.85459466  1
  F  F99  1  0.00000000  0.00000000  0.64540534  1
  F  F100  1  0.66666667  0.33333333  0.47873868  1
  F  F101  1  0.66666667  0.33333333  0.68792799  1
  F  F102  1  0.66666667  0.33333333  0.18792799  1
  F  F103  1  0.66666667  0.33333333  0.97873868  1
  F  F104  1  0.33333333  0.66666667  0.81207201  1
  F  F105  1  0.33333333  0.66666667  0.02126132  1
  F  F106  1  0.33333333  0.66666667  0.52126132  1
  F  F107  1  0.33333333  0.66666667  0.31207201  1
  Li  Li108  1  0.73767432  0.86237615  0.74188332  1
  Li  Li109  1  -0.86237615  -0.12470183  0.74188332  1
  Li  Li110  1  0.12470183  -0.73767432  0.74188332  1
  Li  Li111  1  0.86237615  0.73767432  -0.24188332  1
  Li  Li112  1  -0.12470183  -0.86237615  -0.24188332  1
  Li  Li113  1  -0.73767432  0.12470183  -0.24188332  1
  Li  Li114  1  -0.73767432  -0.86237615  -0.74188332  1
  Li  Li115  1  0.86237615  0.12470183  -0.74188332  1
  Li  Li116  1  -0.12470183  0.73767432  -0.74188332  1
  Li  Li117  1  -0.86237615  -0.73767432  1.24188332  1
  Li  Li118  1  0.12470183  0.86237615  1.24188332  1
  Li  Li119  1  0.73767432  -0.12470183  1.24188332  1
  Li  Li120  1  1.40434099  1.19570948  1.07521666  1
  Li  Li121  1  -0.19570948  0.20863150  1.07521666  1
  Li  Li122  1  0.79136850  -0.40434099  1.07521666  1
  Li  Li123  1  1.52904282  1.07100765  0.09145001  1
  Li  Li124  1  0.54196484  -0.52904282  0.09145001  1
  Li  Li125  1  -0.07100765  0.45803516  0.09145001  1
  Li  Li126  1  -0.07100765  -0.52904282  -0.40854999  1
  Li  Li127  1  1.52904282  0.45803516  -0.40854999  1
  Li  Li128  1  0.54196484  1.07100765  -0.40854999  1
  Li  Li129  1  -0.19570948  -0.40434099  1.57521666  1
  Li  Li130  1  0.79136850  1.19570948  1.57521666  1
  Li  Li131  1  1.40434099  0.20863150  1.57521666  1
  Li  Li132  1  1.07100765  1.52904282  1.40854999  1
  Li  Li133  1  -0.52904282  0.54196484  1.40854999  1
  Li  Li134  1  0.45803516  -0.07100765  1.40854999  1
  Li  Li135  1  1.19570948  1.40434099  0.42478334  1
  Li  Li136  1  0.20863150  -0.19570948  0.42478334  1
  Li  Li137  1  -0.40434099  0.79136850  0.42478334  1
  Li  Li138  1  -0.40434099  -0.19570948  -0.07521666  1
  Li  Li139  1  1.19570948  0.79136850  -0.07521666  1
  Li  Li140  1  0.20863150  1.40434099  -0.07521666  1
  Li  Li141  1  -0.52904282  -0.07100765  1.90854999  1
  Li  Li142  1  0.45803516  1.52904282  1.90854999  1
  Li  Li143  1  1.07100765  0.54196484  1.90854999  1
  Li  Li144  1  0.85117304  0.25693942  0.36676543  1
  Li  Li145  1  0.74306058  0.59423362  0.36676543  1
  Li  Li146  1  0.40576638  0.14882696  0.36676543  1
  Li  Li147  1  0.25693942  0.85117304  0.13323457  1
  Li  Li148  1  0.59423362  0.74306058  0.13323457  1
  Li  Li149  1  0.14882696  0.40576638  0.13323457  1
  Li  Li150  1  0.14882696  0.74306058  0.63323457  1
  Li  Li151  1  0.25693942  0.40576638  0.63323457  1
  Li  Li152  1  0.59423362  0.85117304  0.63323457  1
  Li  Li153  1  0.74306058  0.14882696  0.86676543  1
  Li  Li154  1  0.40576638  0.25693942  0.86676543  1
  Li  Li155  1  0.85117304  0.59423362  0.86676543  1
  Li  Li156  1  0.51783970  0.59027275  0.70009876  1
  Li  Li157  1  0.40972725  0.92756695  0.70009876  1
  Li  Li158  1  0.07243305  0.48216030  0.70009876  1
  Li  Li159  1  0.92360608  0.18450637  0.46656791  1
  Li  Li160  1  0.26090029  0.07639392  0.46656791  1
  Li  Li161  1  0.81549363  0.73909971  0.46656791  1
  Li  Li162  1  0.81549363  0.07639392  0.96656791  1
  Li  Li163  1  0.92360608  0.73909971  0.96656791  1
  Li  Li164  1  0.26090029  0.18450637  0.96656791  1
  Li  Li165  1  0.40972725  0.48216030  0.20009876  1
  Li  Li166  1  0.07243305  0.59027275  0.20009876  1
  Li  Li167  1  0.51783970  0.92756695  0.20009876  1
  Li  Li168  1  0.18450637  0.92360608  0.03343209  1
  Li  Li169  1  0.07639392  0.26090029  0.03343209  1
  Li  Li170  1  0.73909971  0.81549363  0.03343209  1
  Li  Li171  1  0.59027275  0.51783970  0.79990124  1
  Li  Li172  1  0.92756695  0.40972725  0.79990124  1
  Li  Li173  1  0.48216030  0.07243305  0.79990124  1
  Li  Li174  1  0.48216030  0.40972725  0.29990124  1
  Li  Li175  1  0.59027275  0.07243305  0.29990124  1
  Li  Li176  1  0.92756695  0.51783970  0.29990124  1
  Li  Li177  1  0.07639392  0.81549363  0.53343209  1
  Li  Li178  1  0.73909971  0.92360608  0.53343209  1
  Li  Li179  1  0.18450637  0.26090029  0.53343209  1
  Li  Li180  1  0.17911529  0.24267226  0.37054120  1
  Li  Li181  1  0.75732774  0.93644303  0.37054120  1
  Li  Li182  1  0.06355697  0.82088471  0.37054120  1
  Li  Li183  1  0.24267226  0.17911529  0.12945880  1
  Li  Li184  1  0.93644303  0.75732774  0.12945880  1
  Li  Li185  1  0.82088471  0.06355697  0.12945880  1
  Li  Li186  1  0.82088471  0.75732774  0.62945880  1
  Li  Li187  1  0.24267226  0.06355697  0.62945880  1
  Li  Li188  1  0.93644303  0.17911529  0.62945880  1
  Li  Li189  1  0.75732774  0.82088471  0.87054120  1
  Li  Li190  1  0.06355697  0.24267226  0.87054120  1
  Li  Li191  1  0.17911529  0.93644303  0.87054120  1
  Li  Li192  1  0.84578195  0.57600559  0.70387453  1
  Li  Li193  1  0.42399441  0.26977636  0.70387453  1
  Li  Li194  1  0.73022364  0.15421805  0.70387453  1
  Li  Li195  1  0.90933892  0.51244862  0.46279214  1
  Li  Li196  1  0.60310969  0.09066108  0.46279214  1
  Li  Li197  1  0.48755138  0.39689031  0.46279214  1
  Li  Li198  1  0.48755138  0.09066108  0.96279214  1
  Li  Li199  1  0.90933892  0.39689031  0.96279214  1
  Li  Li200  1  0.60310969  0.51244862  0.96279214  1
  Li  Li201  1  0.42399441  0.15421805  0.20387453  1
  Li  Li202  1  0.73022364  0.57600559  0.20387453  1
  Li  Li203  1  0.84578195  0.26977636  0.20387453  1
  Li  Li204  1  0.51244862  0.90933892  0.03720786  1
  Li  Li205  1  0.09066108  0.60310969  0.03720786  1
  Li  Li206  1  0.39689031  0.48755138  0.03720786  1
  Li  Li207  1  0.57600559  0.84578195  0.79612547  1
  Li  Li208  1  0.26977636  0.42399441  0.79612547  1
  Li  Li209  1  0.15421805  0.73022364  0.79612547  1
  Li  Li210  1  0.15421805  0.42399441  0.29612547  1
  Li  Li211  1  0.57600559  0.73022364  0.29612547  1
  Li  Li212  1  0.26977636  0.84578195  0.29612547  1
  Li  Li213  1  0.09066108  0.48755138  0.53720786  1
  Li  Li214  1  0.39689031  0.90933892  0.53720786  1
  Li  Li215  1  0.51244862  0.60310969  0.53720786  1
