# generated using pymatgen
data_LiYP2Se
_symmetry_space_group_name_H-M   'P 1'
_cell_length_a   4.20986661
_cell_length_b   4.50106702
_cell_length_c   6.87708308
_cell_angle_alpha   96.12894270
_cell_angle_beta   103.34756302
_cell_angle_gamma   114.61752692
_symmetry_Int_Tables_number   1
_chemical_formula_structural   LiYP2Se
_chemical_formula_sum   'Li2 Y2 P4 Se2'
_cell_volume   112.19420042
_cell_formula_units_Z   2
loop_
 _symmetry_equiv_pos_site_id
 _symmetry_equiv_pos_as_xyz
  1  'x, y, z'
loop_
 _atom_site_type_symbol
 _atom_site_label
 _atom_site_symmetry_multiplicity
 _atom_site_fract_x
 _atom_site_fract_y
 _atom_site_fract_z
 _atom_site_occupancy
  P  P0  1  0.12500000  0.12500000  0.12500000  1
  P  P1  1  0.50000000  0.50000000  0.50000000  1
  P  P2  1  0.25000000  0.25000000  0.25000000  1
  P  P3  1  0.75000000  0.75000000  0.75000000  1
  Se  Se4  1  0.12845971  0.50432364  0.48997523  1
  Se  Se5  1  0.01346613  0.85960575  0.25574221  1
  Li  Li6  1  0.19763227  0.56961578  0.32655634  1
  Li  Li7  1  0.34688039  0.01135823  0.96882380  1
  Y  Y8  1  0.76737625  0.59948145  0.24898383  1
  Y  Y9  1  0.08808776  0.13950144  0.27515235  1
