# generated using pymatgen
data_LiYAs2PSe
_symmetry_space_group_name_H-M   'P 1'
_cell_length_a   4.92286857
_cell_length_b   5.02017477
_cell_length_c   6.92670900
_cell_angle_alpha   94.83973031
_cell_angle_beta   100.53992645
_cell_angle_gamma   109.43927313
_symmetry_Int_Tables_number   1
_chemical_formula_structural   LiYAs2PSe
_chemical_formula_sum   'Li2 Y2 As4 P2 Se2'
_cell_volume   156.74248925
_cell_formula_units_Z   2
loop_
 _symmetry_equiv_pos_site_id
 _symmetry_equiv_pos_as_xyz
  1  'x, y, z'
loop_
 _atom_site_type_symbol
 _atom_site_label
 _atom_site_symmetry_multiplicity
 _atom_site_fract_x
 _atom_site_fract_y
 _atom_site_fract_z
 _atom_site_occupancy
  Se  Se0  1  0.12500000  0.00000000  0.25000000  1
  Se  Se1  1  0.00000000  0.00000000  0.00000000  1
  P  P2  1  0.37500000  0.00000000  0.25000000  1
  P  P3  1  0.25000000  0.25000000  0.25000000  1
  As  As4  1  0.00000000  0.25000000  0.12500000  1
  As  As5  1  0.81417189  0.31856727  0.60876305  1
  As  As6  1  0.40523778  0.28522424  0.16030201  1
  As  As7  1  0.07369401  0.87965360  0.95694462  1
  Li  Li8  1  0.03608809  0.04235100  0.51086895  1
  Li  Li9  1  0.84889689  0.20580687  0.74351250  1
  Y  Y10  1  0.65254120  0.73266330  0.43690434  1
  Y  Y11  1  0.29682921  0.69433588  0.46229245  1
