# generated using pymatgen
data_LiF
_symmetry_space_group_name_H-M   'P 1'
_cell_length_a   8.91745370
_cell_length_b   7.75559351
_cell_length_c   5.70217061
_cell_angle_alpha   90.00000000
_cell_angle_beta   90.00000000
_cell_angle_gamma   90.00000000
_symmetry_Int_Tables_number   1
_chemical_formula_structural   LiF
_chemical_formula_sum   'Li18 F18'
_cell_volume   394.36295260
_cell_formula_units_Z   18
loop_
 _symmetry_equiv_pos_site_id
 _symmetry_equiv_pos_as_xyz
  1  'x, y, z'
loop_
 _atom_site_type_symbol
 _atom_site_label
 _atom_site_symmetry_multiplicity
 _atom_site_fract_x
 _atom_site_fract_y
 _atom_site_fract_z
 _atom_site_occupancy
  F  F0  1  0.31303703  0.78612984  0.20788022  1
  F  F1  1  -0.31303703  -0.78612984  0.20788022  1
  F  F2  1  0.18696297  1.28612984  0.29211978  1
  F  F3  1  0.81303703  -0.28612984  0.29211978  1
  F  F4  1  -0.31303703  -0.78612984  -0.20788022  1
  F  F5  1  0.31303703  0.78612984  -0.20788022  1
  F  F6  1  0.81303703  -0.28612984  0.70788022  1
  F  F7  1  0.18696297  1.28612984  0.70788022  1
  F  F8  1  0.12357429  0.79938571  0.90231740  1
  F  F9  1  0.87642571  0.20061429  0.90231740  1
  F  F10  1  0.37642571  0.29938571  0.59768260  1
  F  F11  1  0.62357429  0.70061429  0.59768260  1
  F  F12  1  0.87642571  0.20061429  0.09768260  1
  F  F13  1  0.12357429  0.79938571  0.09768260  1
  F  F14  1  0.62357429  0.70061429  0.40231740  1
  F  F15  1  0.37642571  0.29938571  0.40231740  1
  F  F16  1  0.00000000  0.00000000  0.50000000  1
  F  F17  1  0.50000000  0.50000000  0.00000000  1
  Li  Li18  1  0.64781122  0.78377169  0.00000000  1
  Li  Li19  1  0.35218878  0.21622831  0.00000000  1
  Li  Li20  1  0.85218878  0.28377169  0.50000000  1
  Li  Li21  1  0.14781122  0.71622831  0.50000000  1
  Li  Li22  1  0.87389844  0.50548314  0.32763318  1
  Li  Li23  1  0.12610156  0.49451686  0.32763318  1
  Li  Li24  1  0.62610156  0.00548314  0.17236682  1
  Li  Li25  1  0.37389844  0.99451686  0.17236682  1
  Li  Li26  1  0.12610156  0.49451686  0.67236682  1
  Li  Li27  1  0.87389844  0.50548314  0.67236682  1
  Li  Li28  1  0.37389844  0.99451686  0.82763318  1
  Li  Li29  1  0.62610156  0.00548314  0.82763318  1
  Li  Li30  1  0.00000000  0.50000000  0.00000000  1
  Li  Li31  1  0.50000000  -0.00000000  0.50000000  1
  Li  Li32  1  0.39870326  0.43223566  -0.00000000  1
  Li  Li33  1  0.60129674  0.56776434  0.00000000  1
  Li  Li34  1  0.10129674  0.93223566  0.50000000  1
  Li  Li35  1  0.89870326  0.06776434  0.50000000  1
