# generated using pymatgen
data_LiF
_symmetry_space_group_name_H-M   'P 1'
_cell_length_a   11.94634507
_cell_length_b   15.96012337
_cell_length_c   7.51206471
_cell_angle_alpha   90.00000000
_cell_angle_beta   90.00000000
_cell_angle_gamma   90.00000000
_symmetry_Int_Tables_number   1
_chemical_formula_structural   LiF
_chemical_formula_sum   'Li44 F44'
_cell_volume   1432.28887856
_cell_formula_units_Z   44
loop_
 _symmetry_equiv_pos_site_id
 _symmetry_equiv_pos_as_xyz
  1  'x, y, z'
loop_
 _atom_site_type_symbol
 _atom_site_label
 _atom_site_symmetry_multiplicity
 _atom_site_fract_x
 _atom_site_fract_y
 _atom_site_fract_z
 _atom_site_occupancy
  F  F0  1  0.19054115  0.49340958  0.82458039  1
  F  F1  1  0.30945885  0.50659042  0.32458039  1
  F  F2  1  0.80945885  0.99340958  0.17541961  1
  F  F3  1  0.69054115  0.00659042  0.67541961  1
  F  F4  1  0.80945885  0.50659042  0.17541961  1
  F  F5  1  0.69054115  0.49340958  0.67541961  1
  F  F6  1  0.19054115  0.00659042  0.82458039  1
  F  F7  1  0.30945885  0.99340958  0.32458039  1
  F  F8  1  0.74843182  0.09162459  0.60514276  1
  F  F9  1  0.75156818  0.90837541  0.10514276  1
  F  F10  1  0.25156818  0.59162459  0.39485724  1
  F  F11  1  0.24843182  0.40837541  0.89485724  1
  F  F12  1  0.25156818  0.90837541  0.39485724  1
  F  F13  1  0.24843182  0.09162459  0.89485724  1
  F  F14  1  0.74843182  0.40837541  0.60514276  1
  F  F15  1  0.75156818  0.59162459  0.10514276  1
  F  F16  1  0.90277732  0.25000000  0.92164021  1
  F  F17  1  0.59722268  0.75000000  0.42164021  1
  F  F18  1  0.09722268  0.75000000  0.07835979  1
  F  F19  1  0.40277732  0.25000000  0.57835979  1
  F  F20  1  0.79200857  0.46505098  0.13301545  1
  F  F21  1  0.70799143  0.53494902  0.63301545  1
  F  F22  1  0.20799143  0.96505098  0.86698455  1
  F  F23  1  0.29200857  0.03494902  0.36698455  1
  F  F24  1  0.20799143  0.53494902  0.86698455  1
  F  F25  1  0.29200857  0.46505098  0.36698455  1
  F  F26  1  0.79200857  0.03494902  0.13301545  1
  F  F27  1  0.70799143  0.96505098  0.63301545  1
  F  F28  1  0.70779241  0.47616766  0.49433625  1
  F  F29  1  0.79220759  0.52383234  0.99433625  1
  F  F30  1  0.29220759  0.97616766  0.50566375  1
  F  F31  1  0.20779241  0.02383234  0.00566375  1
  F  F32  1  0.29220759  0.52383234  0.50566375  1
  F  F33  1  0.20779241  0.47616766  0.00566375  1
  F  F34  1  0.70779241  0.02383234  0.49433625  1
  F  F35  1  0.79220759  0.97616766  0.99433625  1
  F  F36  1  0.92974844  0.12997008  0.36213804  1
  F  F37  1  0.57025156  0.87002992  0.86213804  1
  F  F38  1  0.07025156  0.62997008  0.63786196  1
  F  F39  1  0.42974844  0.37002992  0.13786196  1
  F  F40  1  0.07025156  0.87002992  0.63786196  1
  F  F41  1  0.42974844  0.12997008  0.13786196  1
  F  F42  1  0.92974844  0.37002992  0.36213804  1
  F  F43  1  0.57025156  0.62997008  0.86213804  1
  Li  Li44  1  0.00000000  0.00000000  0.50000000  1
  Li  Li45  1  0.50000000  0.00000000  -0.00000000  1
  Li  Li46  1  0.00000000  0.50000000  0.50000000  1
  Li  Li47  1  0.50000000  0.50000000  0.00000000  1
  Li  Li48  1  0.43678344  0.62736607  0.28803981  1
  Li  Li49  1  0.06321656  -0.62736607  0.78803981  1
  Li  Li50  1  -0.43678344  1.12736607  -0.28803981  1
  Li  Li51  1  0.93678344  -0.12736607  0.21196019  1
  Li  Li52  1  -0.43678344  -0.62736607  -0.28803981  1
  Li  Li53  1  0.93678344  0.62736607  0.21196019  1
  Li  Li54  1  0.43678344  -0.12736607  0.28803981  1
  Li  Li55  1  0.06321656  1.12736607  0.78803981  1
  Li  Li56  1  0.21168736  0.45873526  0.31805972  1
  Li  Li57  1  0.28831264  0.54126474  0.81805972  1
  Li  Li58  1  0.78831264  0.95873526  0.68194028  1
  Li  Li59  1  0.71168736  0.04126474  0.18194028  1
  Li  Li60  1  0.78831264  0.54126474  0.68194028  1
  Li  Li61  1  0.71168736  0.45873526  0.18194028  1
  Li  Li62  1  0.21168736  0.04126474  0.31805972  1
  Li  Li63  1  0.28831264  0.95873526  0.81805972  1
  Li  Li64  1  0.00000000  0.00000000  0.00000000  1
  Li  Li65  1  0.50000000  0.00000000  0.50000000  1
  Li  Li66  1  0.00000000  0.50000000  0.00000000  1
  Li  Li67  1  0.50000000  0.50000000  0.50000000  1
  Li  Li68  1  0.28777623  0.25000000  0.83631588  1
  Li  Li69  1  0.21222377  0.75000000  0.33631588  1
  Li  Li70  1  0.71222377  0.75000000  0.16368412  1
  Li  Li71  1  0.78777623  0.25000000  0.66368412  1
  Li  Li72  1  0.57760906  0.25000000  0.25172590  1
  Li  Li73  1  0.92239094  0.75000000  0.75172590  1
  Li  Li74  1  0.42239094  0.75000000  0.74827410  1
  Li  Li75  1  0.07760906  0.25000000  0.24827410  1
  Li  Li76  1  0.63577994  0.41466876  0.47015640  1
  Li  Li77  1  0.86422006  0.58533124  0.97015640  1
  Li  Li78  1  0.36422006  0.91466876  0.52984360  1
  Li  Li79  1  0.13577994  0.08533124  0.02984360  1
  Li  Li80  1  0.36422006  0.58533124  0.52984360  1
  Li  Li81  1  0.13577994  0.41466876  0.02984360  1
  Li  Li82  1  0.63577994  0.08533124  0.47015640  1
  Li  Li83  1  0.86422006  0.91466876  0.97015640  1
  Li  Li84  1  0.18771944  0.25000000  0.29217289  1
  Li  Li85  1  0.31228056  0.75000000  0.79217289  1
  Li  Li86  1  0.81228056  0.75000000  0.70782711  1
  Li  Li87  1  0.68771944  0.25000000  0.20782711  1
