# generated using pymatgen
data_LiF
_symmetry_space_group_name_H-M   'P 1'
_cell_length_a   11.18531974
_cell_length_b   12.71804215
_cell_length_c   4.76674089
_cell_angle_alpha   90.00000000
_cell_angle_beta   90.00000000
_cell_angle_gamma   90.00000000
_symmetry_Int_Tables_number   1
_chemical_formula_structural   LiF
_chemical_formula_sum   'Li24 F24'
_cell_volume   678.09447824
_cell_formula_units_Z   24
loop_
 _symmetry_equiv_pos_site_id
 _symmetry_equiv_pos_as_xyz
  1  'x, y, z'
loop_
 _atom_site_type_symbol
 _atom_site_label
 _atom_site_symmetry_multiplicity
 _atom_site_fract_x
 _atom_site_fract_y
 _atom_site_fract_z
 _atom_site_occupancy
  F  F0  1  0.92535106  0.25000000  0.82127950  1
  F  F1  1  0.57464894  0.75000000  0.32127950  1
  F  F2  1  0.07464894  0.75000000  0.17872050  1
  F  F3  1  0.42535106  0.25000000  0.67872050  1
  F  F4  1  0.12594236  0.36587475  0.37769305  1
  F  F5  1  0.37405764  0.63412525  0.87769305  1
  F  F6  1  0.87405764  0.86587475  0.62230695  1
  F  F7  1  0.62594236  0.13412525  0.12230695  1
  F  F8  1  0.87405764  0.63412525  0.62230695  1
  F  F9  1  0.62594236  0.36587475  0.12230695  1
  F  F10  1  0.12594236  0.13412525  0.37769305  1
  F  F11  1  0.37405764  0.86587475  0.87769305  1
  F  F12  1  0.23769039  0.32991231  0.34103968  1
  F  F13  1  0.26230961  0.67008769  0.84103968  1
  F  F14  1  0.76230961  0.82991231  0.65896032  1
  F  F15  1  0.73769039  0.17008769  0.15896032  1
  F  F16  1  0.76230961  0.67008769  0.65896032  1
  F  F17  1  0.73769039  0.32991231  0.15896032  1
  F  F18  1  0.23769039  0.17008769  0.34103968  1
  F  F19  1  0.26230961  0.82991231  0.84103968  1
  F  F20  1  0.00000000  0.00000000  0.00000000  1
  F  F21  1  0.50000000  0.00000000  0.50000000  1
  F  F22  1  0.00000000  0.50000000  0.00000000  1
  F  F23  1  0.50000000  0.50000000  0.50000000  1
  Li  Li24  1  0.00000000  0.00000000  0.50000000  1
  Li  Li25  1  0.50000000  0.00000000  0.00000000  1
  Li  Li26  1  0.00000000  0.50000000  0.50000000  1
  Li  Li27  1  0.50000000  0.50000000  0.00000000  1
  Li  Li28  1  0.88217699  0.98527613  0.15697282  1
  Li  Li29  1  -0.38217699  -0.98527613  0.65697282  1
  Li  Li30  1  -0.88217699  1.48527613  -0.15697282  1
  Li  Li31  1  1.38217699  -0.48527613  0.34302718  1
  Li  Li32  1  -0.88217699  -0.98527613  -0.15697282  1
  Li  Li33  1  1.38217699  0.98527613  0.34302718  1
  Li  Li34  1  0.88217699  -0.48527613  0.15697282  1
  Li  Li35  1  -0.38217699  1.48527613  0.65697282  1
  Li  Li36  1  0.62457384  0.25000000  0.05850931  1
  Li  Li37  1  0.87542616  0.75000000  0.55850931  1
  Li  Li38  1  0.37542616  0.75000000  0.94149069  1
  Li  Li39  1  0.12457384  0.25000000  0.44149069  1
  Li  Li40  1  0.84227108  0.25000000  0.57531994  1
  Li  Li41  1  0.65772892  0.75000000  0.07531994  1
  Li  Li42  1  0.15772892  0.75000000  0.42468006  1
  Li  Li43  1  0.34227108  0.25000000  0.92468006  1
  Li  Li44  1  0.69003656  0.25000000  0.73026633  1
  Li  Li45  1  0.80996344  0.75000000  0.23026633  1
  Li  Li46  1  0.30996344  0.75000000  0.26973367  1
  Li  Li47  1  0.19003656  0.25000000  0.76973367  1
