# generated using pymatgen
data_LiF
_symmetry_space_group_name_H-M   'P 1'
_cell_length_a   7.38612579
_cell_length_b   6.81659263
_cell_length_c   8.42624268
_cell_angle_alpha   90.00000000
_cell_angle_beta   90.00000000
_cell_angle_gamma   90.00000000
_symmetry_Int_Tables_number   1
_chemical_formula_structural   LiF
_chemical_formula_sum   'Li22 F22'
_cell_volume   424.24624147
_cell_formula_units_Z   22
loop_
 _symmetry_equiv_pos_site_id
 _symmetry_equiv_pos_as_xyz
  1  'x, y, z'
loop_
 _atom_site_type_symbol
 _atom_site_label
 _atom_site_symmetry_multiplicity
 _atom_site_fract_x
 _atom_site_fract_y
 _atom_site_fract_z
 _atom_site_occupancy
  F  F0  1  0.63581871  0.29535133  0.50000000  1
  F  F1  1  0.36418129  0.70464867  0.50000000  1
  F  F2  1  0.86418129  0.79535133  0.50000000  1
  F  F3  1  0.13581871  0.20464867  0.50000000  1
  F  F4  1  0.29850816  0.91133562  0.75478490  1
  F  F5  1  -0.29850816  -0.91133562  0.75478490  1
  F  F6  1  0.20149184  1.41133562  -0.75478490  1
  F  F7  1  0.79850816  -0.41133562  -0.75478490  1
  F  F8  1  -0.29850816  -0.91133562  -0.75478490  1
  F  F9  1  0.29850816  0.91133562  -0.75478490  1
  F  F10  1  0.79850816  -0.41133562  0.75478490  1
  F  F11  1  0.20149184  1.41133562  0.75478490  1
  F  F12  1  0.40288925  0.56102627  0.28385148  1
  F  F13  1  0.59711075  0.43897373  0.28385148  1
  F  F14  1  0.09711075  0.06102627  0.71614852  1
  F  F15  1  0.90288925  0.93897373  0.71614852  1
  F  F16  1  0.59711075  0.43897373  0.71614852  1
  F  F17  1  0.40288925  0.56102627  0.71614852  1
  F  F18  1  0.90288925  0.93897373  0.28385148  1
  F  F19  1  0.09711075  0.06102627  0.28385148  1
  F  F20  1  0.00000000  0.50000000  0.00000000  1
  F  F21  1  0.50000000  0.00000000  0.00000000  1
  Li  Li22  1  0.78676072  0.55280178  0.00000000  1
  Li  Li23  1  0.21323928  0.44719822  0.00000000  1
  Li  Li24  1  0.71323928  0.05280178  0.00000000  1
  Li  Li25  1  0.28676072  0.94719822  0.00000000  1
  Li  Li26  1  0.00000000  0.00000000  0.00000000  1
  Li  Li27  1  0.50000000  0.50000000  0.00000000  1
  Li  Li28  1  0.18983786  0.57192748  0.24109527  1
  Li  Li29  1  0.81016214  0.42807252  0.24109527  1
  Li  Li30  1  0.31016214  0.07192748  0.75890473  1
  Li  Li31  1  0.68983786  0.92807252  0.75890473  1
  Li  Li32  1  0.81016214  0.42807252  0.75890473  1
  Li  Li33  1  0.18983786  0.57192748  0.75890473  1
  Li  Li34  1  0.68983786  0.92807252  0.24109527  1
  Li  Li35  1  0.31016214  0.07192748  0.24109527  1
  Li  Li36  1  0.54092172  0.22173443  0.00000000  1
  Li  Li37  1  0.45907828  0.77826557  0.00000000  1
  Li  Li38  1  0.95907828  0.72173443  0.00000000  1
  Li  Li39  1  0.04092172  0.27826557  0.00000000  1
  Li  Li40  1  0.00000000  0.00000000  0.50000000  1
  Li  Li41  1  0.50000000  0.50000000  0.50000000  1
  Li  Li42  1  0.00000000  0.50000000  0.50000000  1
  Li  Li43  1  0.50000000  0.00000000  0.50000000  1
