# generated using pymatgen
data_Li4TeF2
_symmetry_space_group_name_H-M   'P 1'
_cell_length_a   13.72642359
_cell_length_b   13.72642359
_cell_length_c   13.72642359
_cell_angle_alpha   90.00000000
_cell_angle_beta   90.00000000
_cell_angle_gamma   90.00000000
_symmetry_Int_Tables_number   1
_chemical_formula_structural   Li4TeF2
_chemical_formula_sum   'Li96 Te24 F48'
_cell_volume   2586.26004554
_cell_formula_units_Z   24
loop_
 _symmetry_equiv_pos_site_id
 _symmetry_equiv_pos_as_xyz
  1  'x, y, z'
loop_
 _atom_site_type_symbol
 _atom_site_label
 _atom_site_symmetry_multiplicity
 _atom_site_fract_x
 _atom_site_fract_y
 _atom_site_fract_z
 _atom_site_occupancy
  F  F0  1  0.12500000  0.33380192  0.58380192  1
  F  F1  1  0.37500000  0.66619808  0.08380192  1
  F  F2  1  0.87500000  0.83380192  0.91619808  1
  F  F3  1  0.62500000  0.16619808  0.41619808  1
  F  F4  1  0.58380192  0.12500000  0.33380192  1
  F  F5  1  0.08380192  0.37500000  0.66619808  1
  F  F6  1  0.91619808  0.87500000  0.83380192  1
  F  F7  1  0.41619808  0.62500000  0.16619808  1
  F  F8  1  0.33380192  0.58380192  0.12500000  1
  F  F9  1  0.66619808  0.08380192  0.37500000  1
  F  F10  1  0.83380192  0.91619808  0.87500000  1
  F  F11  1  0.16619808  0.41619808  0.62500000  1
  F  F12  1  0.62500000  0.83380192  0.08380192  1
  F  F13  1  0.87500000  0.16619808  0.58380192  1
  F  F14  1  0.37500000  0.33380192  0.41619808  1
  F  F15  1  0.12500000  0.66619808  0.91619808  1
  F  F16  1  0.08380192  0.62500000  0.83380192  1
  F  F17  1  0.58380192  0.87500000  0.16619808  1
  F  F18  1  0.41619808  0.37500000  0.33380192  1
  F  F19  1  0.91619808  0.12500000  0.66619808  1
  F  F20  1  0.83380192  0.08380192  0.62500000  1
  F  F21  1  0.16619808  0.58380192  0.87500000  1
  F  F22  1  0.33380192  0.41619808  0.37500000  1
  F  F23  1  0.66619808  0.91619808  0.12500000  1
  F  F24  1  0.47885140  0.47885140  0.47885140  1
  F  F25  1  0.02114860  0.52114860  0.97885140  1
  F  F26  1  0.52114860  0.97885140  0.02114860  1
  F  F27  1  0.97885140  0.02114860  0.52114860  1
  F  F28  1  0.22885140  0.72885140  0.77114860  1
  F  F29  1  0.27114860  0.27114860  0.27114860  1
  F  F30  1  0.72885140  0.77114860  0.22885140  1
  F  F31  1  0.77114860  0.22885140  0.72885140  1
  F  F32  1  0.97885140  0.97885140  0.97885140  1
  F  F33  1  0.52114860  0.02114860  0.47885140  1
  F  F34  1  0.02114860  0.47885140  0.52114860  1
  F  F35  1  0.47885140  0.52114860  0.02114860  1
  F  F36  1  0.72885140  0.22885140  0.27114860  1
  F  F37  1  0.77114860  0.77114860  0.77114860  1
  F  F38  1  0.22885140  0.27114860  0.72885140  1
  F  F39  1  0.27114860  0.72885140  0.22885140  1
  F  F40  1  0.12500000  0.12500000  0.12500000  1
  F  F41  1  0.37500000  0.87500000  0.62500000  1
  F  F42  1  0.87500000  0.62500000  0.37500000  1
  F  F43  1  0.62500000  0.37500000  0.87500000  1
  F  F44  1  0.62500000  0.62500000  0.62500000  1
  F  F45  1  0.87500000  0.37500000  0.12500000  1
  F  F46  1  0.37500000  0.12500000  0.87500000  1
  F  F47  1  0.12500000  0.87500000  0.37500000  1
  Li  Li48  1  0.12500000  0.92328828  0.17328828  1
  Li  Li49  1  0.37500000  0.07671172  0.67328828  1
  Li  Li50  1  0.87500000  0.42328828  0.32671172  1
  Li  Li51  1  0.62500000  0.57671172  0.82671172  1
  Li  Li52  1  0.17328828  0.12500000  0.92328828  1
  Li  Li53  1  0.67328828  0.37500000  0.07671172  1
  Li  Li54  1  0.32671172  0.87500000  0.42328828  1
  Li  Li55  1  0.82671172  0.62500000  0.57671172  1
  Li  Li56  1  0.92328828  0.17328828  0.12500000  1
  Li  Li57  1  0.07671172  0.67328828  0.37500000  1
  Li  Li58  1  0.42328828  0.32671172  0.87500000  1
  Li  Li59  1  0.57671172  0.82671172  0.62500000  1
  Li  Li60  1  0.62500000  0.42328828  0.67328828  1
  Li  Li61  1  0.87500000  0.57671172  0.17328828  1
  Li  Li62  1  0.37500000  0.92328828  0.82671172  1
  Li  Li63  1  0.12500000  0.07671172  0.32671172  1
  Li  Li64  1  0.67328828  0.62500000  0.42328828  1
  Li  Li65  1  0.17328828  0.87500000  0.57671172  1
  Li  Li66  1  0.82671172  0.37500000  0.92328828  1
  Li  Li67  1  0.32671172  0.12500000  0.07671172  1
  Li  Li68  1  0.42328828  0.67328828  0.62500000  1
  Li  Li69  1  0.57671172  0.17328828  0.87500000  1
  Li  Li70  1  0.92328828  0.82671172  0.37500000  1
  Li  Li71  1  0.07671172  0.32671172  0.12500000  1
  Li  Li72  1  0.12500000  0.59193356  0.65806644  1
  Li  Li73  1  0.37500000  0.40806644  0.15806644  1
  Li  Li74  1  0.87500000  0.09193356  0.84193356  1
  Li  Li75  1  0.62500000  0.90806644  0.34193356  1
  Li  Li76  1  0.65806644  0.12500000  0.59193356  1
  Li  Li77  1  0.15806644  0.37500000  0.40806644  1
  Li  Li78  1  0.84193356  0.87500000  0.09193356  1
  Li  Li79  1  0.34193356  0.62500000  0.90806644  1
  Li  Li80  1  0.59193356  0.65806644  0.12500000  1
  Li  Li81  1  0.40806644  0.15806644  0.37500000  1
  Li  Li82  1  0.09193356  0.84193356  0.87500000  1
  Li  Li83  1  0.90806644  0.34193356  0.62500000  1
  Li  Li84  1  0.62500000  0.09193356  0.15806644  1
  Li  Li85  1  0.87500000  0.90806644  0.65806644  1
  Li  Li86  1  0.37500000  0.59193356  0.34193356  1
  Li  Li87  1  0.12500000  0.40806644  0.84193356  1
  Li  Li88  1  0.15806644  0.62500000  0.09193356  1
  Li  Li89  1  0.65806644  0.87500000  0.90806644  1
  Li  Li90  1  0.34193356  0.37500000  0.59193356  1
  Li  Li91  1  0.84193356  0.12500000  0.40806644  1
  Li  Li92  1  0.09193356  0.15806644  0.62500000  1
  Li  Li93  1  0.90806644  0.65806644  0.87500000  1
  Li  Li94  1  0.59193356  0.34193356  0.37500000  1
  Li  Li95  1  0.40806644  0.84193356  0.12500000  1
  Li  Li96  1  0.13885728  0.16800984  0.76679126  1
  Li  Li97  1  0.36114272  -0.16800984  1.26679126  1
  Li  Li98  1  -0.13885728  0.66800984  -0.26679126  1
  Li  Li99  1  0.63885728  0.33199016  -0.76679126  1
  Li  Li100  1  0.76679126  0.13885728  0.16800984  1
  Li  Li101  1  1.26679126  0.36114272  -0.16800984  1
  Li  Li102  1  -0.26679126  -0.13885728  0.66800984  1
  Li  Li103  1  -0.76679126  0.63885728  0.33199016  1
  Li  Li104  1  0.16800984  0.76679126  0.13885728  1
  Li  Li105  1  -0.16800984  1.26679126  0.36114272  1
  Li  Li106  1  0.66800984  -0.26679126  -0.13885728  1
  Li  Li107  1  0.33199016  -0.76679126  0.63885728  1
  Li  Li108  1  0.91800984  0.38885728  -0.51679126  1
  Li  Li109  1  0.58199016  0.61114272  -0.01679126  1
  Li  Li110  1  0.41800984  0.11114272  1.51679126  1
  Li  Li111  1  0.08199016  0.88885728  1.01679126  1
  Li  Li112  1  0.88885728  1.01679126  0.08199016  1
  Li  Li113  1  0.11114272  1.51679126  0.41800984  1
  Li  Li114  1  0.61114272  -0.01679126  0.58199016  1
  Li  Li115  1  0.38885728  -0.51679126  0.91800984  1
  Li  Li116  1  1.51679126  0.41800984  0.11114272  1
  Li  Li117  1  1.01679126  0.08199016  0.88885728  1
  Li  Li118  1  -0.51679126  0.91800984  0.38885728  1
  Li  Li119  1  -0.01679126  0.58199016  0.61114272  1
  Li  Li120  1  0.63885728  0.66800984  1.26679126  1
  Li  Li121  1  0.86114272  0.33199016  1.76679126  1
  Li  Li122  1  0.36114272  1.16800984  0.23320874  1
  Li  Li123  1  1.13885728  0.83199016  -0.26679126  1
  Li  Li124  1  1.26679126  0.63885728  0.66800984  1
  Li  Li125  1  1.76679126  0.86114272  0.33199016  1
  Li  Li126  1  0.23320874  0.36114272  1.16800984  1
  Li  Li127  1  -0.26679126  1.13885728  0.83199016  1
  Li  Li128  1  0.66800984  1.26679126  0.63885728  1
  Li  Li129  1  0.33199016  1.76679126  0.86114272  1
  Li  Li130  1  1.16800984  0.23320874  0.36114272  1
  Li  Li131  1  0.83199016  -0.26679126  1.13885728  1
  Li  Li132  1  1.41800984  0.88885728  -0.01679126  1
  Li  Li133  1  1.08199016  1.11114272  0.48320874  1
  Li  Li134  1  0.91800984  0.61114272  2.01679126  1
  Li  Li135  1  0.58199016  1.38885728  1.51679126  1
  Li  Li136  1  1.38885728  1.51679126  0.58199016  1
  Li  Li137  1  0.61114272  2.01679126  0.91800984  1
  Li  Li138  1  1.11114272  0.48320874  1.08199016  1
  Li  Li139  1  0.88885728  -0.01679126  1.41800984  1
  Li  Li140  1  2.01679126  0.91800984  0.61114272  1
  Li  Li141  1  1.51679126  0.58199016  1.38885728  1
  Li  Li142  1  -0.01679126  1.41800984  0.88885728  1
  Li  Li143  1  0.48320874  1.08199016  1.11114272  1
  Te  Te144  1  0.62500000  0.00000000  0.25000000  1
  Te  Te145  1  0.87500000  -0.00000000  0.75000000  1
  Te  Te146  1  0.25000000  0.62500000  0.00000000  1
  Te  Te147  1  0.75000000  0.87500000  -0.00000000  1
  Te  Te148  1  0.00000000  0.25000000  0.62500000  1
  Te  Te149  1  0.00000000  0.75000000  0.87500000  1
  Te  Te150  1  0.12500000  0.50000000  0.75000000  1
  Te  Te151  1  0.37500000  0.50000000  0.25000000  1
  Te  Te152  1  0.75000000  0.12500000  0.50000000  1
  Te  Te153  1  0.25000000  0.37500000  0.50000000  1
  Te  Te154  1  0.50000000  0.75000000  0.12500000  1
  Te  Te155  1  0.50000000  0.25000000  0.37500000  1
  Te  Te156  1  0.12500000  0.00000000  0.25000000  1
  Te  Te157  1  0.37500000  0.00000000  0.75000000  1
  Te  Te158  1  0.25000000  0.12500000  0.00000000  1
  Te  Te159  1  0.75000000  0.37500000  0.00000000  1
  Te  Te160  1  0.00000000  0.25000000  0.12500000  1
  Te  Te161  1  0.00000000  0.75000000  0.37500000  1
  Te  Te162  1  0.62500000  0.50000000  0.75000000  1
  Te  Te163  1  0.87500000  0.50000000  0.25000000  1
  Te  Te164  1  0.75000000  0.62500000  0.50000000  1
  Te  Te165  1  0.25000000  0.87500000  0.50000000  1
  Te  Te166  1  0.50000000  0.75000000  0.62500000  1
  Te  Te167  1  0.50000000  0.25000000  0.87500000  1
