# generated using pymatgen
data_LiF
_symmetry_space_group_name_H-M   'P 1'
_cell_length_a   8.18803681
_cell_length_b   6.94040727
_cell_length_c   15.91534534
_cell_angle_alpha   90.00000000
_cell_angle_beta   90.00000000
_cell_angle_gamma   90.00000000
_symmetry_Int_Tables_number   1
_chemical_formula_structural   LiF
_chemical_formula_sum   'Li24 F24'
_cell_volume   904.44218242
_cell_formula_units_Z   24
loop_
 _symmetry_equiv_pos_site_id
 _symmetry_equiv_pos_as_xyz
  1  'x, y, z'
loop_
 _atom_site_type_symbol
 _atom_site_label
 _atom_site_symmetry_multiplicity
 _atom_site_fract_x
 _atom_site_fract_y
 _atom_site_fract_z
 _atom_site_occupancy
  F  F0  1  0.00000000  0.00000000  0.50000000  1
  F  F1  1  0.50000000  -0.00000000  -0.00000000  1
  F  F2  1  0.00000000  0.50000000  0.50000000  1
  F  F3  1  0.50000000  0.50000000  -0.00000000  1
  F  F4  1  0.07151894  0.99802368  0.78054588  1
  F  F5  1  0.42848106  0.00197632  0.28054588  1
  F  F6  1  0.92848106  0.49802368  0.21945412  1
  F  F7  1  0.57151894  0.50197632  0.71945412  1
  F  F8  1  0.92848106  0.00197632  0.21945412  1
  F  F9  1  0.57151894  0.99802368  0.71945412  1
  F  F10  1  0.07151894  0.50197632  0.78054588  1
  F  F11  1  0.42848106  0.49802368  0.28054588  1
  F  F12  1  0.37889952  0.33304634  0.93940508  1
  F  F13  1  0.12110048  0.66695366  0.43940508  1
  F  F14  1  0.62110048  0.83304634  0.06059492  1
  F  F15  1  0.87889952  0.16695366  0.56059492  1
  F  F16  1  0.62110048  0.66695366  0.06059492  1
  F  F17  1  0.87889952  0.33304634  0.56059492  1
  F  F18  1  0.37889952  0.16695366  0.93940508  1
  F  F19  1  0.12110048  0.83304634  0.43940508  1
  F  F20  1  0.76877098  0.25000000  0.73829476  1
  F  F21  1  0.73122902  0.75000000  0.23829476  1
  F  F22  1  0.23122902  0.75000000  0.26170524  1
  F  F23  1  0.26877098  0.25000000  0.76170524  1
  Li  Li24  1  0.99324378  0.25000000  0.07067508  1
  Li  Li25  1  0.50675622  0.75000000  0.57067508  1
  Li  Li26  1  0.00675622  0.75000000  0.92932492  1
  Li  Li27  1  0.49324378  0.25000000  0.42932492  1
  Li  Li28  1  0.36935278  0.25000000  0.20264910  1
  Li  Li29  1  0.13064722  0.75000000  0.70264910  1
  Li  Li30  1  0.63064722  0.75000000  0.79735090  1
  Li  Li31  1  0.86935278  0.25000000  0.29735090  1
  Li  Li32  1  0.48447819  0.55951260  0.46285694  1
  Li  Li33  1  0.01552181  -0.55951260  0.96285694  1
  Li  Li34  1  -0.48447819  1.05951260  -0.46285694  1
  Li  Li35  1  0.98447819  -0.05951260  0.03714306  1
  Li  Li36  1  -0.48447819  -0.55951260  -0.46285694  1
  Li  Li37  1  0.98447819  0.55951260  0.03714306  1
  Li  Li38  1  0.48447819  -0.05951260  0.46285694  1
  Li  Li39  1  0.01552181  1.05951260  0.96285694  1
  Li  Li40  1  0.34226382  0.53480250  0.37611169  1
  Li  Li41  1  0.15773618  0.46519750  0.87611169  1
  Li  Li42  1  0.65773618  0.03480250  0.62388831  1
  Li  Li43  1  0.84226382  0.96519750  0.12388831  1
  Li  Li44  1  0.65773618  0.46519750  0.62388831  1
  Li  Li45  1  0.84226382  0.53480250  0.12388831  1
  Li  Li46  1  0.34226382  0.96519750  0.37611169  1
  Li  Li47  1  0.15773618  0.03480250  0.87611169  1
