# generated using pymatgen
data_Li2Si4Te3F12
_symmetry_space_group_name_H-M   'P 1'
_cell_length_a   9.46339150
_cell_length_b   9.46339150
_cell_length_c   15.65151951
_cell_angle_alpha   90.00000000
_cell_angle_beta   90.00000000
_cell_angle_gamma   120.00000000
_symmetry_Int_Tables_number   1
_chemical_formula_structural   Li2Si4Te3F12
_chemical_formula_sum   'Li8 Si16 Te12 F48'
_cell_volume   1213.89396675
_cell_formula_units_Z   4
loop_
 _symmetry_equiv_pos_site_id
 _symmetry_equiv_pos_as_xyz
  1  'x, y, z'
loop_
 _atom_site_type_symbol
 _atom_site_label
 _atom_site_symmetry_multiplicity
 _atom_site_fract_x
 _atom_site_fract_y
 _atom_site_fract_z
 _atom_site_occupancy
  F  F0  1  0.78823859  0.57647717  0.40851211  1
  F  F1  1  0.42352283  0.21176141  0.40851211  1
  F  F2  1  0.78823859  0.21176141  0.40851211  1
  F  F3  1  0.21176141  0.42352283  0.90851211  1
  F  F4  1  0.57647717  0.78823859  0.90851211  1
  F  F5  1  0.21176141  0.78823859  0.90851211  1
  F  F6  1  0.57647717  0.78823859  0.59148789  1
  F  F7  1  0.21176141  0.42352283  0.59148789  1
  F  F8  1  0.21176141  0.78823859  0.59148789  1
  F  F9  1  0.42352283  0.21176141  0.09148789  1
  F  F10  1  0.78823859  0.57647717  0.09148789  1
  F  F11  1  0.78823859  0.21176141  0.09148789  1
  F  F12  1  0.39807096  0.00000000  0.00000000  1
  F  F13  1  0.00000000  0.39807096  0.00000000  1
  F  F14  1  0.60192904  0.60192904  0.00000000  1
  F  F15  1  0.60192904  0.00000000  0.50000000  1
  F  F16  1  0.00000000  0.60192904  0.50000000  1
  F  F17  1  0.39807096  0.39807096  0.50000000  1
  F  F18  1  0.60192904  0.00000000  0.00000000  1
  F  F19  1  0.00000000  0.60192904  0.00000000  1
  F  F20  1  0.39807096  0.39807096  0.00000000  1
  F  F21  1  0.39807096  0.00000000  0.50000000  1
  F  F22  1  0.00000000  0.39807096  0.50000000  1
  F  F23  1  0.60192904  0.60192904  0.50000000  1
  F  F24  1  0.84095115  0.02104695  0.11633169  1
  F  F25  1  -0.02104695  0.81990420  0.11633169  1
  F  F26  1  -0.81990420  -0.84095115  0.11633169  1
  F  F27  1  -0.84095115  -0.02104695  0.61633169  1
  F  F28  1  0.02104695  -0.81990420  0.61633169  1
  F  F29  1  0.81990420  0.84095115  0.61633169  1
  F  F30  1  0.02104695  0.84095115  -0.11633169  1
  F  F31  1  0.81990420  -0.02104695  -0.11633169  1
  F  F32  1  -0.84095115  -0.81990420  -0.11633169  1
  F  F33  1  -0.02104695  -0.84095115  0.38366831  1
  F  F34  1  -0.81990420  0.02104695  0.38366831  1
  F  F35  1  0.84095115  0.81990420  0.38366831  1
  F  F36  1  -0.84095115  -0.02104695  -0.11633169  1
  F  F37  1  0.02104695  -0.81990420  -0.11633169  1
  F  F38  1  0.81990420  0.84095115  -0.11633169  1
  F  F39  1  0.84095115  0.02104695  0.38366831  1
  F  F40  1  -0.02104695  0.81990420  0.38366831  1
  F  F41  1  -0.81990420  -0.84095115  0.38366831  1
  F  F42  1  -0.02104695  -0.84095115  0.11633169  1
  F  F43  1  -0.81990420  0.02104695  0.11633169  1
  F  F44  1  0.84095115  0.81990420  0.11633169  1
  F  F45  1  0.02104695  0.84095115  0.61633169  1
  F  F46  1  0.81990420  -0.02104695  0.61633169  1
  F  F47  1  -0.84095115  -0.81990420  0.61633169  1
  Li  Li48  1  0.33333333  0.66666667  0.07006655  1
  Li  Li49  1  0.66666667  0.33333333  0.57006655  1
  Li  Li50  1  0.66666667  0.33333333  0.92993345  1
  Li  Li51  1  0.33333333  0.66666667  0.42993345  1
  Li  Li52  1  0.33333333  0.66666667  0.25000000  1
  Li  Li53  1  0.66666667  0.33333333  0.75000000  1
  Li  Li54  1  0.00000000  0.00000000  0.00000000  1
  Li  Li55  1  0.00000000  0.00000000  0.50000000  1
  Si  Si56  1  0.00000000  0.00000000  0.63844310  1
  Si  Si57  1  0.00000000  0.00000000  0.13844310  1
  Si  Si58  1  0.00000000  0.00000000  0.36155690  1
  Si  Si59  1  0.00000000  0.00000000  0.86155690  1
  Si  Si60  1  0.33333333  0.66666667  0.75000000  1
  Si  Si61  1  0.66666667  0.33333333  0.25000000  1
  Si  Si62  1  0.50000000  -0.00000000  0.00000000  1
  Si  Si63  1  0.00000000  0.50000000  0.00000000  1
  Si  Si64  1  0.50000000  0.50000000  0.00000000  1
  Si  Si65  1  0.50000000  -0.00000000  0.50000000  1
  Si  Si66  1  0.00000000  0.50000000  0.50000000  1
  Si  Si67  1  0.50000000  0.50000000  0.50000000  1
  Si  Si68  1  0.33333333  0.66666667  0.85513149  1
  Si  Si69  1  0.66666667  0.33333333  0.35513149  1
  Si  Si70  1  0.66666667  0.33333333  0.14486851  1
  Si  Si71  1  0.33333333  0.66666667  0.64486851  1
  Te  Te72  1  0.61635148  0.60437946  0.25000000  1
  Te  Te73  1  0.39562054  0.01197202  0.25000000  1
  Te  Te74  1  0.98802798  0.38364852  0.25000000  1
  Te  Te75  1  0.38364852  0.39562054  0.75000000  1
  Te  Te76  1  0.60437946  0.98802798  0.75000000  1
  Te  Te77  1  0.01197202  0.61635148  0.75000000  1
  Te  Te78  1  0.60437946  0.61635148  0.75000000  1
  Te  Te79  1  0.01197202  0.39562054  0.75000000  1
  Te  Te80  1  0.38364852  0.98802798  0.75000000  1
  Te  Te81  1  0.39562054  0.38364852  0.25000000  1
  Te  Te82  1  0.98802798  0.60437946  0.25000000  1
  Te  Te83  1  0.61635148  0.01197202  0.25000000  1
