# generated using pymatgen
data_LiF
_symmetry_space_group_name_H-M   'P 1'
_cell_length_a   10.06870847
_cell_length_b   7.44569870
_cell_length_c   10.67827083
_cell_angle_alpha   90.00000000
_cell_angle_beta   90.00000000
_cell_angle_gamma   90.00000000
_symmetry_Int_Tables_number   1
_chemical_formula_structural   LiF
_chemical_formula_sum   'Li24 F24'
_cell_volume   800.53468922
_cell_formula_units_Z   24
loop_
 _symmetry_equiv_pos_site_id
 _symmetry_equiv_pos_as_xyz
  1  'x, y, z'
loop_
 _atom_site_type_symbol
 _atom_site_label
 _atom_site_symmetry_multiplicity
 _atom_site_fract_x
 _atom_site_fract_y
 _atom_site_fract_z
 _atom_site_occupancy
  F  F0  1  0.58642355  0.36744683  0.88083538  1
  F  F1  1  0.91357645  0.63255317  0.38083538  1
  F  F2  1  0.41357645  0.86744683  0.11916462  1
  F  F3  1  0.08642355  0.13255317  0.61916462  1
  F  F4  1  0.41357645  0.63255317  0.11916462  1
  F  F5  1  0.08642355  0.36744683  0.61916462  1
  F  F6  1  0.58642355  0.13255317  0.88083538  1
  F  F7  1  0.91357645  0.86744683  0.38083538  1
  F  F8  1  0.85544219  0.44757811  0.93419840  1
  F  F9  1  0.64455781  0.55242189  0.43419840  1
  F  F10  1  0.14455781  0.94757811  0.06580160  1
  F  F11  1  0.35544219  0.05242189  0.56580160  1
  F  F12  1  0.14455781  0.55242189  0.06580160  1
  F  F13  1  0.35544219  0.44757811  0.56580160  1
  F  F14  1  0.85544219  0.05242189  0.93419840  1
  F  F15  1  0.64455781  0.94757811  0.43419840  1
  F  F16  1  0.02284532  0.86355175  0.61287877  1
  F  F17  1  0.47715468  0.13644825  0.11287877  1
  F  F18  1  0.97715468  0.36355175  0.38712123  1
  F  F19  1  0.52284532  0.63644825  0.88712123  1
  F  F20  1  0.97715468  0.13644825  0.38712123  1
  F  F21  1  0.52284532  0.86355175  0.88712123  1
  F  F22  1  0.02284532  0.63644825  0.61287877  1
  F  F23  1  0.47715468  0.36355175  0.11287877  1
  Li  Li24  1  0.00000000  0.00000000  0.00000000  1
  Li  Li25  1  0.50000000  0.00000000  0.50000000  1
  Li  Li26  1  0.00000000  0.50000000  0.00000000  1
  Li  Li27  1  0.50000000  0.50000000  0.50000000  1
  Li  Li28  1  0.39668039  0.25000000  0.35206883  1
  Li  Li29  1  0.10331961  0.75000000  0.85206883  1
  Li  Li30  1  0.60331961  0.75000000  0.64793117  1
  Li  Li31  1  0.89668039  0.25000000  0.14793117  1
  Li  Li32  1  0.23514171  0.66000068  0.74757249  1
  Li  Li33  1  0.26485829  -0.66000068  1.24757249  1
  Li  Li34  1  -0.23514171  1.16000068  -0.74757249  1
  Li  Li35  1  0.73514171  -0.16000068  -0.24757249  1
  Li  Li36  1  -0.23514171  -0.66000068  -0.74757249  1
  Li  Li37  1  0.73514171  0.66000068  -0.24757249  1
  Li  Li38  1  0.23514171  -0.16000068  0.74757249  1
  Li  Li39  1  0.26485829  1.16000068  1.24757249  1
  Li  Li40  1  0.24289071  0.25000000  0.11303301  1
  Li  Li41  1  0.25710929  0.75000000  0.61303301  1
  Li  Li42  1  0.75710929  0.75000000  0.88696699  1
  Li  Li43  1  0.74289071  0.25000000  0.38696699  1
  Li  Li44  1  0.00000000  0.00000000  0.50000000  1
  Li  Li45  1  0.50000000  0.00000000  0.00000000  1
  Li  Li46  1  0.00000000  0.50000000  0.50000000  1
  Li  Li47  1  0.50000000  0.50000000  0.00000000  1
