# generated using pymatgen
data_Li2Y2As3P2Se
_symmetry_space_group_name_H-M   'P 1'
_cell_length_a   4.63673116
_cell_length_b   4.82622627
_cell_length_c   6.68422750
_cell_angle_alpha   95.10429210
_cell_angle_beta   99.92879493
_cell_angle_gamma   108.63992446
_symmetry_Int_Tables_number   1
_chemical_formula_structural   Li2Y2As3P2Se
_chemical_formula_sum   'Li2 Y2 As3 P2 Se1'
_cell_volume   137.93684360
_cell_formula_units_Z   1
loop_
 _symmetry_equiv_pos_site_id
 _symmetry_equiv_pos_as_xyz
  1  'x, y, z'
loop_
 _atom_site_type_symbol
 _atom_site_label
 _atom_site_symmetry_multiplicity
 _atom_site_fract_x
 _atom_site_fract_y
 _atom_site_fract_z
 _atom_site_occupancy
  Se  Se0  1  0.00000000  0.00000000  0.00000000  1
  P  P1  1  0.50000000  0.50000000  0.50000000  1
  P  P2  1  0.25000000  0.25000000  0.25000000  1
  As  As3  1  0.75000000  0.25000000  0.00000000  1
  As  As4  1  0.25000000  0.75000000  0.50000000  1
  As  As5  1  0.72050395  0.35805572  0.80904183  1
  Li  Li6  1  0.35492563  0.73805674  0.30610530  1
  Li  Li7  1  0.08276296  0.70327299  0.36124234  1
  Y  Y8  1  0.84047004  0.88739932  0.16059991  1
  Y  Y9  1  0.47504336  0.13601848  0.36330802  1
