# generated using pymatgen
data_LiF
_symmetry_space_group_name_H-M   'P 1'
_cell_length_a   7.36642130
_cell_length_b   14.10550908
_cell_length_c   7.75797670
_cell_angle_alpha   90.00000000
_cell_angle_beta   90.00000000
_cell_angle_gamma   90.00000000
_symmetry_Int_Tables_number   1
_chemical_formula_structural   LiF
_chemical_formula_sum   'Li24 F24'
_cell_volume   806.10903545
_cell_formula_units_Z   24
loop_
 _symmetry_equiv_pos_site_id
 _symmetry_equiv_pos_as_xyz
  1  'x, y, z'
loop_
 _atom_site_type_symbol
 _atom_site_label
 _atom_site_symmetry_multiplicity
 _atom_site_fract_x
 _atom_site_fract_y
 _atom_site_fract_z
 _atom_site_occupancy
  F  F0  1  0.73016671  0.61752432  0.41727496  1
  F  F1  1  0.76983329  0.38247568  0.91727496  1
  F  F2  1  0.26983329  0.11752432  0.58272504  1
  F  F3  1  0.23016671  0.88247568  0.08272504  1
  F  F4  1  0.26983329  0.38247568  0.58272504  1
  F  F5  1  0.23016671  0.61752432  0.08272504  1
  F  F6  1  0.73016671  0.88247568  0.41727496  1
  F  F7  1  0.76983329  0.11752432  0.91727496  1
  F  F8  1  0.67340425  0.15526160  0.33701134  1
  F  F9  1  0.82659575  0.84473840  0.83701134  1
  F  F10  1  0.32659575  0.65526160  0.66298866  1
  F  F11  1  0.17340425  0.34473840  0.16298866  1
  F  F12  1  0.32659575  0.84473840  0.66298866  1
  F  F13  1  0.17340425  0.15526160  0.16298866  1
  F  F14  1  0.67340425  0.34473840  0.33701134  1
  F  F15  1  0.82659575  0.65526160  0.83701134  1
  F  F16  1  0.59208464  0.25000000  0.23576032  1
  F  F17  1  0.90791536  0.75000000  0.73576032  1
  F  F18  1  0.40791536  0.75000000  0.76423968  1
  F  F19  1  0.09208464  0.25000000  0.26423968  1
  F  F20  1  0.81327506  0.25000000  0.16607822  1
  F  F21  1  0.68672494  0.75000000  0.66607822  1
  F  F22  1  0.18672494  0.75000000  0.83392178  1
  F  F23  1  0.31327506  0.25000000  0.33392178  1
  Li  Li24  1  0.00000000  0.00000000  0.00000000  1
  Li  Li25  1  0.50000000  0.00000000  0.50000000  1
  Li  Li26  1  0.00000000  0.50000000  0.00000000  1
  Li  Li27  1  0.50000000  0.50000000  0.50000000  1
  Li  Li28  1  0.02305607  0.25000000  0.72275443  1
  Li  Li29  1  0.47694393  0.75000000  0.22275443  1
  Li  Li30  1  0.97694393  0.75000000  0.27724557  1
  Li  Li31  1  0.52305607  0.25000000  0.77724557  1
  Li  Li32  1  0.31063517  0.41827896  0.41709018  1
  Li  Li33  1  0.18936483  -0.41827896  0.91709018  1
  Li  Li34  1  -0.31063517  0.91827896  -0.41709018  1
  Li  Li35  1  0.81063517  0.08172104  0.08290982  1
  Li  Li36  1  -0.31063517  -0.41827896  -0.41709018  1
  Li  Li37  1  0.81063517  0.41827896  0.08290982  1
  Li  Li38  1  0.31063517  0.08172104  0.41709018  1
  Li  Li39  1  0.18936483  0.91827896  0.91709018  1
  Li  Li40  1  0.41604771  0.60929990  0.55022729  1
  Li  Li41  1  0.08395229  0.39070010  0.05022729  1
  Li  Li42  1  0.58395229  0.10929990  0.44977271  1
  Li  Li43  1  0.91604771  0.89070010  0.94977271  1
  Li  Li44  1  0.58395229  0.39070010  0.44977271  1
  Li  Li45  1  0.91604771  0.60929990  0.94977271  1
  Li  Li46  1  0.41604771  0.89070010  0.55022729  1
  Li  Li47  1  0.08395229  0.10929990  0.05022729  1
