# generated using pymatgen
data_LiF
_symmetry_space_group_name_H-M   'P 1'
_cell_length_a   11.66606466
_cell_length_b   11.66606466
_cell_length_c   4.17189645
_cell_angle_alpha   90.00000000
_cell_angle_beta   90.00000000
_cell_angle_gamma   120.00000000
_symmetry_Int_Tables_number   1
_chemical_formula_structural   LiF
_chemical_formula_sum   'Li22 F22'
_cell_volume   491.71438161
_cell_formula_units_Z   22
loop_
 _symmetry_equiv_pos_site_id
 _symmetry_equiv_pos_as_xyz
  1  'x, y, z'
loop_
 _atom_site_type_symbol
 _atom_site_label
 _atom_site_symmetry_multiplicity
 _atom_site_fract_x
 _atom_site_fract_y
 _atom_site_fract_z
 _atom_site_occupancy
  F  F0  1  0.84401972  0.55226556  0.53967693  1
  F  F1  1  0.44773444  0.29175416  0.53967693  1
  F  F2  1  0.70824584  0.15598028  0.53967693  1
  F  F3  1  0.44773444  0.15598028  0.46032307  1
  F  F4  1  0.70824584  0.55226556  0.46032307  1
  F  F5  1  0.84401972  0.29175416  0.46032307  1
  F  F6  1  0.66666667  0.33333333  0.34481734  1
  F  F7  1  0.66666667  0.33333333  0.65518266  1
  F  F8  1  0.75458206  0.80307319  0.45135081  1
  F  F9  1  0.19692681  0.95150887  0.45135081  1
  F  F10  1  0.04849113  0.24541794  0.45135081  1
  F  F11  1  0.19692681  0.24541794  0.54864919  1
  F  F12  1  0.04849113  0.80307319  0.54864919  1
  F  F13  1  0.75458206  0.95150887  0.54864919  1
  F  F14  1  0.88216323  0.58220924  0.26208074  1
  F  F15  1  0.41779076  0.29995399  0.26208074  1
  F  F16  1  0.70004601  0.11783677  0.26208074  1
  F  F17  1  0.41779076  0.11783677  0.73791926  1
  F  F18  1  0.70004601  0.58220924  0.73791926  1
  F  F19  1  0.88216323  0.29995399  0.73791926  1
  F  F20  1  0.33333333  0.66666667  0.57631792  1
  F  F21  1  0.33333333  0.66666667  0.42368208  1
  Li  Li22  1  0.66666667  0.33333333  0.00000000  1
  Li  Li23  1  0.43998196  0.04748656  0.06368555  1
  Li  Li24  1  -0.04748656  0.39249540  0.06368555  1
  Li  Li25  1  -0.39249540  -0.43998196  0.06368555  1
  Li  Li26  1  -0.04748656  -0.43998196  -0.06368555  1
  Li  Li27  1  -0.39249540  0.04748656  -0.06368555  1
  Li  Li28  1  0.43998196  0.39249540  -0.06368555  1
  Li  Li29  1  0.33333333  0.66666667  0.00000000  1
  Li  Li30  1  0.40177394  0.59822606  0.50000000  1
  Li  Li31  1  0.40177394  0.80354788  0.50000000  1
  Li  Li32  1  0.19645212  0.59822606  0.50000000  1
  Li  Li33  1  0.57113251  0.73232398  0.75270410  1
  Li  Li34  1  0.26767602  0.83880852  0.75270410  1
  Li  Li35  1  0.16119148  0.42886749  0.75270410  1
  Li  Li36  1  0.26767602  0.42886749  0.24729590  1
  Li  Li37  1  0.16119148  0.73232398  0.24729590  1
  Li  Li38  1  0.57113251  0.83880852  0.24729590  1
  Li  Li39  1  0.00000000  0.00000000  0.00000000  1
  Li  Li40  1  0.18606954  0.81393046  0.00000000  1
  Li  Li41  1  0.18606954  0.37213907  0.00000000  1
  Li  Li42  1  0.62786093  0.81393046  0.00000000  1
  Li  Li43  1  0.00000000  0.00000000  0.50000000  1
