# generated using pymatgen
data_LiF
_symmetry_space_group_name_H-M   'P 1'
_cell_length_a   8.94530079
_cell_length_b   4.28320344
_cell_length_c   18.80858488
_cell_angle_alpha   90.00000000
_cell_angle_beta   90.00000000
_cell_angle_gamma   90.00000000
_symmetry_Int_Tables_number   1
_chemical_formula_structural   LiF
_chemical_formula_sum   'Li24 F24'
_cell_volume   720.64233588
_cell_formula_units_Z   24
loop_
 _symmetry_equiv_pos_site_id
 _symmetry_equiv_pos_as_xyz
  1  'x, y, z'
loop_
 _atom_site_type_symbol
 _atom_site_label
 _atom_site_symmetry_multiplicity
 _atom_site_fract_x
 _atom_site_fract_y
 _atom_site_fract_z
 _atom_site_occupancy
  F  F0  1  0.39311951  0.25000000  0.01501528  1
  F  F1  1  0.10688049  0.75000000  0.51501528  1
  F  F2  1  0.60688049  0.75000000  0.98498472  1
  F  F3  1  0.89311951  0.25000000  0.48498472  1
  F  F4  1  0.34725951  0.25000000  0.30198528  1
  F  F5  1  0.15274049  0.75000000  0.80198528  1
  F  F6  1  0.65274049  0.75000000  0.69801472  1
  F  F7  1  0.84725951  0.25000000  0.19801472  1
  F  F8  1  0.89945089  0.67795981  0.65973616  1
  F  F9  1  -0.39945089  -0.67795981  1.15973616  1
  F  F10  1  -0.89945089  1.17795981  -0.65973616  1
  F  F11  1  1.39945089  -0.17795981  -0.15973616  1
  F  F12  1  -0.89945089  -0.67795981  -0.65973616  1
  F  F13  1  1.39945089  0.67795981  -0.15973616  1
  F  F14  1  0.89945089  -0.17795981  0.65973616  1
  F  F15  1  -0.39945089  1.17795981  1.15973616  1
  F  F16  1  0.38715097  0.25000000  0.97499759  1
  F  F17  1  0.11284903  0.75000000  0.47499759  1
  F  F18  1  0.61284903  0.75000000  0.02500241  1
  F  F19  1  0.88715097  0.25000000  0.52500241  1
  F  F20  1  0.66291017  0.25000000  0.69138892  1
  F  F21  1  0.83708983  0.75000000  0.19138892  1
  F  F22  1  0.33708983  0.75000000  0.30861108  1
  F  F23  1  0.16291017  0.25000000  0.80861108  1
  Li  Li24  1  0.00000000  0.00000000  0.00000000  1
  Li  Li25  1  0.50000000  0.00000000  0.50000000  1
  Li  Li26  1  0.00000000  0.50000000  0.00000000  1
  Li  Li27  1  0.50000000  0.50000000  0.50000000  1
  Li  Li28  1  0.14082321  0.25000000  0.46226458  1
  Li  Li29  1  0.35917679  0.75000000  0.96226458  1
  Li  Li30  1  0.85917679  0.75000000  0.53773542  1
  Li  Li31  1  0.64082321  0.25000000  0.03773542  1
  Li  Li32  1  0.45180919  0.25000000  0.74900827  1
  Li  Li33  1  0.04819081  0.75000000  0.24900827  1
  Li  Li34  1  0.54819081  0.75000000  0.25099173  1
  Li  Li35  1  0.95180919  0.25000000  0.75099173  1
  Li  Li36  1  0.87743342  0.25000000  0.37936482  1
  Li  Li37  1  0.62256658  0.75000000  0.87936482  1
  Li  Li38  1  0.12256658  0.75000000  0.62063518  1
  Li  Li39  1  0.37743342  0.25000000  0.12063518  1
  Li  Li40  1  0.70524931  0.25000000  0.54046900  1
  Li  Li41  1  0.79475069  0.75000000  0.04046900  1
  Li  Li42  1  0.29475069  0.75000000  0.45953100  1
  Li  Li43  1  0.20524931  0.25000000  0.95953100  1
  Li  Li44  1  0.00000000  0.00000000  0.50000000  1
  Li  Li45  1  0.50000000  0.00000000  0.00000000  1
  Li  Li46  1  0.00000000  0.50000000  0.50000000  1
  Li  Li47  1  0.50000000  0.50000000  -0.00000000  1
