# generated using pymatgen
data_Li2Y2Mo(As2P)2
_symmetry_space_group_name_H-M   'P 1'
_cell_length_a   5.51700710
_cell_length_b   5.51655405
_cell_length_c   7.12528214
_cell_angle_alpha   93.87800257
_cell_angle_beta   98.44548337
_cell_angle_gamma   105.57639503
_symmetry_Int_Tables_number   1
_chemical_formula_structural   Li2Y2Mo(As2P)2
_chemical_formula_sum   'Li2 Y2 Mo1 As4 P2'
_cell_volume   205.31865225
_cell_formula_units_Z   1
loop_
 _symmetry_equiv_pos_site_id
 _symmetry_equiv_pos_as_xyz
  1  'x, y, z'
loop_
 _atom_site_type_symbol
 _atom_site_label
 _atom_site_symmetry_multiplicity
 _atom_site_fract_x
 _atom_site_fract_y
 _atom_site_fract_z
 _atom_site_occupancy
  Y  Y0  1  0.12500000  0.00000000  0.25000000  1
  Y  Y1  1  0.00000000  0.00000000  0.00000000  1
  P  P2  1  0.37500000  0.00000000  0.25000000  1
  P  P3  1  0.25000000  0.25000000  0.25000000  1
  Mo  Mo4  1  0.00000000  0.25000000  0.12500000  1
  As  As5  1  0.11538711  0.71127595  0.73378244  1
  As  As6  1  0.71188999  0.50462441  0.18951227  1
  As  As7  1  0.79801431  0.81027298  0.64869574  1
  As  As8  1  0.68413013  0.70552165  0.73013563  1
  Li  Li9  1  0.22226817  0.10809776  0.68607365  1
  Li  Li10  1  0.05092763  0.17514213  0.33253497  1
