# generated using pymatgen
data_Li2Y2Cu3As4P3
_symmetry_space_group_name_H-M   'P 1'
_cell_length_a   4.02930785
_cell_length_b   4.27961991
_cell_length_c   6.57007438
_cell_angle_alpha   96.12415777
_cell_angle_beta   102.99045901
_cell_angle_gamma   114.01144657
_symmetry_Int_Tables_number   1
_chemical_formula_structural   Li2Y2Cu3As4P3
_chemical_formula_sum   'Li2 Y2 Cu3 As4 P3'
_cell_volume   98.31055546
_cell_formula_units_Z   1
loop_
 _symmetry_equiv_pos_site_id
 _symmetry_equiv_pos_as_xyz
  1  'x, y, z'
loop_
 _atom_site_type_symbol
 _atom_site_label
 _atom_site_symmetry_multiplicity
 _atom_site_fract_x
 _atom_site_fract_y
 _atom_site_fract_z
 _atom_site_occupancy
  Cu  Cu0  1  0.00000000  0.00000000  0.00000000  1
  Cu  Cu1  1  0.50000000  0.50000000  0.50000000  1
  Cu  Cu2  1  0.25000000  0.25000000  0.25000000  1
  P  P3  1  0.75000000  0.25000000  0.00000000  1
  P  P4  1  0.25000000  0.75000000  0.50000000  1
  P  P5  1  0.45812243  0.96892364  0.70363257  1
  As  As6  1  0.33071156  0.68973842  0.48477651  1
  As  As7  1  0.09914067  0.94874572  0.63909951  1
  As  As8  1  0.80012121  0.93287197  0.04468369  1
  As  As9  1  0.23265275  0.07358090  0.51045380  1
  Li  Li10  1  0.93259110  0.79161460  0.24068236  1
  Li  Li11  1  0.36043974  0.55068058  0.48645088  1
  Y  Y12  1  0.29198947  0.56337922  0.60601079  1
  Y  Y13  1  0.51046453  0.15091420  0.16245702  1
