# generated using pymatgen
data_LiF
_symmetry_space_group_name_H-M   'P 1'
_cell_length_a   5.11196058
_cell_length_b   7.72396686
_cell_length_c   7.80773179
_cell_angle_alpha   90.00000000
_cell_angle_beta   90.00000000
_cell_angle_gamma   90.00000000
_symmetry_Int_Tables_number   1
_chemical_formula_structural   LiF
_chemical_formula_sum   'Li16 F16'
_cell_volume   308.28527693
_cell_formula_units_Z   16
loop_
 _symmetry_equiv_pos_site_id
 _symmetry_equiv_pos_as_xyz
  1  'x, y, z'
loop_
 _atom_site_type_symbol
 _atom_site_label
 _atom_site_symmetry_multiplicity
 _atom_site_fract_x
 _atom_site_fract_y
 _atom_site_fract_z
 _atom_site_occupancy
  F  F0  1  0.00000000  0.50000000  0.50000000  1
  F  F1  1  0.50000000  0.00000000  0.50000000  1
  F  F2  1  0.22194581  0.36549618  0.84509003  1
  F  F3  1  -0.22194581  -0.36549618  0.84509003  1
  F  F4  1  0.27805419  0.86549618  -0.84509003  1
  F  F5  1  0.72194581  0.13450382  -0.84509003  1
  F  F6  1  -0.22194581  -0.36549618  -0.84509003  1
  F  F7  1  0.22194581  0.36549618  -0.84509003  1
  F  F8  1  0.72194581  0.13450382  0.84509003  1
  F  F9  1  0.27805419  0.86549618  0.84509003  1
  F  F10  1  0.04379067  0.61988414  0.50000000  1
  F  F11  1  0.95620933  0.38011586  0.50000000  1
  F  F12  1  0.45620933  0.11988414  0.50000000  1
  F  F13  1  0.54379067  0.88011586  0.50000000  1
  F  F14  1  0.00000000  0.00000000  0.50000000  1
  F  F15  1  0.50000000  0.50000000  0.50000000  1
  Li  Li16  1  0.84500946  0.66862764  0.64889249  1
  Li  Li17  1  0.15499054  0.33137236  0.64889249  1
  Li  Li18  1  0.65499054  0.16862764  0.35110751  1
  Li  Li19  1  0.34500946  0.83137236  0.35110751  1
  Li  Li20  1  0.15499054  0.33137236  0.35110751  1
  Li  Li21  1  0.84500946  0.66862764  0.35110751  1
  Li  Li22  1  0.34500946  0.83137236  0.64889249  1
  Li  Li23  1  0.65499054  0.16862764  0.64889249  1
  Li  Li24  1  0.64675692  0.82449645  0.39057644  1
  Li  Li25  1  0.35324308  0.17550355  0.39057644  1
  Li  Li26  1  0.85324308  0.32449645  0.60942356  1
  Li  Li27  1  0.14675692  0.67550355  0.60942356  1
  Li  Li28  1  0.35324308  0.17550355  0.60942356  1
  Li  Li29  1  0.64675692  0.82449645  0.60942356  1
  Li  Li30  1  0.14675692  0.67550355  0.39057644  1
  Li  Li31  1  0.85324308  0.32449645  0.39057644  1
