# generated using pymatgen
data_LiF
_symmetry_space_group_name_H-M   'P 1'
_cell_length_a   6.74713672
_cell_length_b   6.74713672
_cell_length_c   17.82821166
_cell_angle_alpha   90.00000000
_cell_angle_beta   90.00000000
_cell_angle_gamma   120.00000000
_symmetry_Int_Tables_number   1
_chemical_formula_structural   LiF
_chemical_formula_sum   'Li25 F25'
_cell_volume   702.87392751
_cell_formula_units_Z   25
loop_
 _symmetry_equiv_pos_site_id
 _symmetry_equiv_pos_as_xyz
  1  'x, y, z'
loop_
 _atom_site_type_symbol
 _atom_site_label
 _atom_site_symmetry_multiplicity
 _atom_site_fract_x
 _atom_site_fract_y
 _atom_site_fract_z
 _atom_site_occupancy
  F  F0  1  0.41333485  0.53318272  0.92866932  1
  F  F1  1  0.46681728  0.88015213  0.92866932  1
  F  F2  1  0.11984787  0.58666515  0.92866932  1
  F  F3  1  0.46681728  0.58666515  0.07133068  1
  F  F4  1  0.11984787  0.53318272  0.07133068  1
  F  F5  1  0.41333485  0.88015213  0.07133068  1
  F  F6  1  0.66666667  0.33333333  0.50000000  1
  F  F7  1  0.49948385  0.50051615  0.50000000  1
  F  F8  1  0.49948385  0.99896771  0.50000000  1
  F  F9  1  0.00103229  0.50051615  0.50000000  1
  F  F10  1  0.00000000  0.00000000  0.60510826  1
  F  F11  1  0.00000000  0.00000000  0.39489174  1
  F  F12  1  0.03421894  0.19655699  0.90243055  1
  F  F13  1  0.80344301  0.83766195  0.90243055  1
  F  F14  1  0.16233805  0.96578106  0.90243055  1
  F  F15  1  0.80344301  0.96578106  0.09756945  1
  F  F16  1  0.16233805  0.19655699  0.09756945  1
  F  F17  1  0.03421894  0.83766195  0.09756945  1
  F  F18  1  0.33333333  0.66666667  -0.00000000  1
  F  F19  1  0.32005440  0.34743568  0.45230567  1
  F  F20  1  0.65256432  0.97261872  0.45230567  1
  F  F21  1  0.02738128  0.67994560  0.45230567  1
  F  F22  1  0.65256432  0.67994560  0.54769433  1
  F  F23  1  0.02738128  0.34743568  0.54769433  1
  F  F24  1  0.32005440  0.97261872  0.54769433  1
  Li  Li25  1  0.00000000  0.00000000  0.45729911  1
  Li  Li26  1  0.00000000  0.00000000  0.54270089  1
  Li  Li27  1  0.62447314  0.49764688  0.28879914  1
  Li  Li28  1  -0.49764688  0.12682627  0.28879914  1
  Li  Li29  1  -0.12682627  -0.62447314  0.28879914  1
  Li  Li30  1  -0.49764688  -0.62447314  -0.28879914  1
  Li  Li31  1  -0.12682627  0.49764688  -0.28879914  1
  Li  Li32  1  0.62447314  0.12682627  -0.28879914  1
  Li  Li33  1  0.33333333  0.66666667  0.23463779  1
  Li  Li34  1  0.33333333  0.66666667  0.76536221  1
  Li  Li35  1  0.33333333  0.66666667  0.06856458  1
  Li  Li36  1  0.33333333  0.66666667  0.93143542  1
  Li  Li37  1  0.26199228  0.73800772  0.50000000  1
  Li  Li38  1  0.26199228  0.52398457  0.50000000  1
  Li  Li39  1  0.47601543  0.73800772  0.50000000  1
  Li  Li40  1  0.94361457  0.82838263  0.63004837  1
  Li  Li41  1  0.17161737  0.11523194  0.63004837  1
  Li  Li42  1  0.88476806  0.05638543  0.63004837  1
  Li  Li43  1  0.17161737  0.05638543  0.36995163  1
  Li  Li44  1  0.88476806  0.82838263  0.36995163  1
  Li  Li45  1  0.94361457  0.11523194  0.36995163  1
  Li  Li46  1  0.33333333  0.66666667  0.36052049  1
  Li  Li47  1  0.33333333  0.66666667  0.63947951  1
  Li  Li48  1  0.66666667  0.33333333  0.06276480  1
  Li  Li49  1  0.66666667  0.33333333  0.93723520  1
