# generated using pymatgen
data_LiF
_symmetry_space_group_name_H-M   'P 1'
_cell_length_a   8.24983418
_cell_length_b   8.24983418
_cell_length_c   7.47041193
_cell_angle_alpha   90.00000000
_cell_angle_beta   90.00000000
_cell_angle_gamma   120.00000000
_symmetry_Int_Tables_number   1
_chemical_formula_structural   LiF
_chemical_formula_sum   'Li22 F22'
_cell_volume   440.31716962
_cell_formula_units_Z   22
loop_
 _symmetry_equiv_pos_site_id
 _symmetry_equiv_pos_as_xyz
  1  'x, y, z'
loop_
 _atom_site_type_symbol
 _atom_site_label
 _atom_site_symmetry_multiplicity
 _atom_site_fract_x
 _atom_site_fract_y
 _atom_site_fract_z
 _atom_site_occupancy
  F  F0  1  0.44837574  0.01417332  0.94203421  1
  F  F1  1  0.98582668  0.43420242  0.94203421  1
  F  F2  1  0.56579758  0.55162426  0.94203421  1
  F  F3  1  0.98582668  0.55162426  0.05796579  1
  F  F4  1  0.56579758  0.01417332  0.05796579  1
  F  F5  1  0.44837574  0.43420242  0.05796579  1
  F  F6  1  0.51246128  0.01996236  0.13652066  1
  F  F7  1  0.98003764  0.49249891  0.13652066  1
  F  F8  1  0.50750109  0.48753872  0.13652066  1
  F  F9  1  0.98003764  0.48753872  0.86347934  1
  F  F10  1  0.50750109  0.01996236  0.86347934  1
  F  F11  1  0.51246128  0.49249891  0.86347934  1
  F  F12  1  0.55294440  0.92235733  0.69767659  1
  F  F13  1  0.07764267  0.63058707  0.69767659  1
  F  F14  1  0.36941293  0.44705560  0.69767659  1
  F  F15  1  0.07764267  0.44705560  0.30232341  1
  F  F16  1  0.36941293  0.92235733  0.30232341  1
  F  F17  1  0.55294440  0.63058707  0.30232341  1
  F  F18  1  0.33333333  0.66666667  0.50000000  1
  F  F19  1  0.12594123  0.87405877  0.50000000  1
  F  F20  1  0.12594123  0.25188247  0.50000000  1
  F  F21  1  0.74811753  0.87405877  0.50000000  1
  Li  Li22  1  0.66666667  0.33333333  0.00000000  1
  Li  Li23  1  0.33333333  0.66666667  0.00000000  1
  Li  Li24  1  0.71005753  0.70778763  0.48077506  1
  Li  Li25  1  -0.70778763  0.00226989  0.48077506  1
  Li  Li26  1  -0.00226989  -0.71005753  0.48077506  1
  Li  Li27  1  -0.70778763  -0.71005753  -0.48077506  1
  Li  Li28  1  -0.00226989  0.70778763  -0.48077506  1
  Li  Li29  1  0.71005753  0.00226989  -0.48077506  1
  Li  Li30  1  0.00000000  0.00000000  0.00000000  1
  Li  Li31  1  0.69279592  0.95443897  0.00656598  1
  Li  Li32  1  0.04556103  0.73835695  0.00656598  1
  Li  Li33  1  0.26164305  0.30720408  0.00656598  1
  Li  Li34  1  0.04556103  0.30720408  0.99343402  1
  Li  Li35  1  0.26164305  0.95443897  0.99343402  1
  Li  Li36  1  0.69279592  0.73835695  0.99343402  1
  Li  Li37  1  0.63576217  0.54993108  0.32449012  1
  Li  Li38  1  0.45006892  0.08583109  0.32449012  1
  Li  Li39  1  0.91416891  0.36423783  0.32449012  1
  Li  Li40  1  0.45006892  0.36423783  0.67550988  1
  Li  Li41  1  0.91416891  0.54993108  0.67550988  1
  Li  Li42  1  0.63576217  0.08583109  0.67550988  1
  Li  Li43  1  0.66666667  0.33333333  0.50000000  1
