# generated using pymatgen
data_LiYP3Se
_symmetry_space_group_name_H-M   'P 1'
_cell_length_a   5.02541171
_cell_length_b   4.95337912
_cell_length_c   7.02724729
_cell_angle_alpha   95.16474602
_cell_angle_beta   99.75791591
_cell_angle_gamma   108.40828874
_symmetry_Int_Tables_number   1
_chemical_formula_structural   LiYP3Se
_chemical_formula_sum   'Li1 Y1 P3 Se1'
_cell_volume   161.63675299
_cell_formula_units_Z   1
loop_
 _symmetry_equiv_pos_site_id
 _symmetry_equiv_pos_as_xyz
  1  'x, y, z'
loop_
 _atom_site_type_symbol
 _atom_site_label
 _atom_site_symmetry_multiplicity
 _atom_site_fract_x
 _atom_site_fract_y
 _atom_site_fract_z
 _atom_site_occupancy
  Se  Se0  1  0.00000000  0.00000000  0.00000000  1
  P  P1  1  0.33300000  0.66700000  0.25000000  1
  P  P2  1  0.66700000  0.33300000  0.50000000  1
  P  P3  1  0.00000000  0.00000000  0.75000000  1
  Li  Li4  1  0.64817333  0.86019539  0.34328440  1
  Y  Y5  1  0.65115382  0.70547724  0.33230739  1
