# generated using pymatgen
data_LiF
_symmetry_space_group_name_H-M   'P 1'
_cell_length_a   9.54992364
_cell_length_b   9.54992364
_cell_length_c   24.56504352
_cell_angle_alpha   90.00000000
_cell_angle_beta   90.00000000
_cell_angle_gamma   120.00000000
_symmetry_Int_Tables_number   1
_chemical_formula_structural   LiF
_chemical_formula_sum   'Li55 F55'
_cell_volume   1940.20655547
_cell_formula_units_Z   55
loop_
 _symmetry_equiv_pos_site_id
 _symmetry_equiv_pos_as_xyz
  1  'x, y, z'
loop_
 _atom_site_type_symbol
 _atom_site_label
 _atom_site_symmetry_multiplicity
 _atom_site_fract_x
 _atom_site_fract_y
 _atom_site_fract_z
 _atom_site_occupancy
  F  F0  1  0.55717454  0.76846634  0.65248074  1
  F  F1  1  0.23153366  0.78870821  0.65248074  1
  F  F2  1  0.21129179  0.44282546  0.65248074  1
  F  F3  1  0.23153366  0.44282546  0.34751926  1
  F  F4  1  0.21129179  0.76846634  0.34751926  1
  F  F5  1  0.55717454  0.78870821  0.34751926  1
  F  F6  1  0.33333333  0.66666667  0.06197931  1
  F  F7  1  0.33333333  0.66666667  0.93802069  1
  F  F8  1  0.53903974  0.38286094  0.37380054  1
  F  F9  1  0.61713906  0.15617881  0.37380054  1
  F  F10  1  0.84382119  0.46096026  0.37380054  1
  F  F11  1  0.61713906  0.46096026  0.62619946  1
  F  F12  1  0.84382119  0.38286094  0.62619946  1
  F  F13  1  0.53903974  0.15617881  0.62619946  1
  F  F14  1  0.00000000  0.00000000  0.00000000  1
  F  F15  1  0.05067098  0.39835232  0.04937820  1
  F  F16  1  0.60164768  0.65231866  0.04937820  1
  F  F17  1  0.34768134  0.94932902  0.04937820  1
  F  F18  1  0.60164768  0.94932902  0.95062180  1
  F  F19  1  0.34768134  0.39835232  0.95062180  1
  F  F20  1  0.05067098  0.65231866  0.95062180  1
  F  F21  1  0.00000000  0.00000000  0.50000000  1
  F  F22  1  0.23777070  0.76222930  0.00000000  1
  F  F23  1  0.23777070  0.47554141  0.00000000  1
  F  F24  1  0.52445859  0.76222930  -0.00000000  1
  F  F25  1  0.29488764  0.39464595  0.86588170  1
  F  F26  1  0.60535405  0.90024168  0.86588170  1
  F  F27  1  0.09975832  0.70511236  0.86588170  1
  F  F28  1  0.60535405  0.70511236  0.13411830  1
  F  F29  1  0.09975832  0.39464595  0.13411830  1
  F  F30  1  0.29488764  0.90024168  0.13411830  1
  F  F31  1  0.88953383  0.99730536  0.90054078  1
  F  F32  1  0.00269464  0.89222848  0.90054078  1
  F  F33  1  0.10777152  0.11046617  0.90054078  1
  F  F34  1  0.00269464  0.11046617  0.09945922  1
  F  F35  1  0.10777152  0.99730536  0.09945922  1
  F  F36  1  0.88953383  0.89222848  0.09945922  1
  F  F37  1  0.49828312  0.56244542  0.46547290  1
  F  F38  1  0.43755458  0.93583770  0.46547290  1
  F  F39  1  0.06416230  0.50171688  0.46547290  1
  F  F40  1  0.43755458  0.50171688  0.53452710  1
  F  F41  1  0.06416230  0.56244542  0.53452710  1
  F  F42  1  0.49828312  0.93583770  0.53452710  1
  F  F43  1  0.73382769  0.85386390  0.09869410  1
  F  F44  1  0.14613610  0.87996379  0.09869410  1
  F  F45  1  0.12003621  0.26617231  0.09869410  1
  F  F46  1  0.14613610  0.26617231  0.90130590  1
  F  F47  1  0.12003621  0.85386390  0.90130590  1
  F  F48  1  0.73382769  0.87996379  0.90130590  1
  F  F49  1  0.61927330  0.22156297  0.67403244  1
  F  F50  1  0.77843703  0.39771033  0.67403244  1
  F  F51  1  0.60228967  0.38072670  0.67403244  1
  F  F52  1  0.77843703  0.38072670  0.32596756  1
  F  F53  1  0.60228967  0.22156297  0.32596756  1
  F  F54  1  0.61927330  0.39771033  0.32596756  1
  Li  Li55  1  0.59565962  0.40434038  0.50000000  1
  Li  Li56  1  0.59565962  0.19131923  0.50000000  1
  Li  Li57  1  0.80868077  0.40434038  0.50000000  1
  Li  Li58  1  0.80852756  0.04461997  0.11401214  1
  Li  Li59  1  -0.04461997  0.76390759  0.11401214  1
  Li  Li60  1  -0.76390759  -0.80852756  0.11401214  1
  Li  Li61  1  -0.04461997  -0.80852756  -0.11401214  1
  Li  Li62  1  -0.76390759  0.04461997  -0.11401214  1
  Li  Li63  1  0.80852756  0.76390759  -0.11401214  1
  Li  Li64  1  0.66666667  0.33333333  0.14723612  1
  Li  Li65  1  0.66666667  0.33333333  0.85276388  1
  Li  Li66  1  0.72885717  0.95633944  0.57081446  1
  Li  Li67  1  0.04366056  0.77251773  0.57081446  1
  Li  Li68  1  0.22748227  0.27114283  0.57081446  1
  Li  Li69  1  0.04366056  0.27114283  0.42918554  1
  Li  Li70  1  0.22748227  0.95633944  0.42918554  1
  Li  Li71  1  0.72885717  0.77251773  0.42918554  1
  Li  Li72  1  0.00000000  0.00000000  0.33850332  1
  Li  Li73  1  0.00000000  0.00000000  0.66149668  1
  Li  Li74  1  0.20695240  0.66307210  0.42115117  1
  Li  Li75  1  0.33692790  0.54388031  0.42115117  1
  Li  Li76  1  0.45611969  0.79304760  0.42115117  1
  Li  Li77  1  0.33692790  0.79304760  0.57884883  1
  Li  Li78  1  0.45611969  0.66307210  0.57884883  1
  Li  Li79  1  0.20695240  0.54388031  0.57884883  1
  Li  Li80  1  0.75828154  0.13138215  0.16795313  1
  Li  Li81  1  0.86861785  0.62689939  0.16795313  1
  Li  Li82  1  0.37310061  0.24171846  0.16795313  1
  Li  Li83  1  0.86861785  0.24171846  0.83204687  1
  Li  Li84  1  0.37310061  0.13138215  0.83204687  1
  Li  Li85  1  0.75828154  0.62689939  0.83204687  1
  Li  Li86  1  0.25529717  0.57401872  0.84989822  1
  Li  Li87  1  0.42598128  0.68127845  0.84989822  1
  Li  Li88  1  0.31872155  0.74470283  0.84989822  1
  Li  Li89  1  0.42598128  0.74470283  0.15010178  1
  Li  Li90  1  0.31872155  0.57401872  0.15010178  1
  Li  Li91  1  0.25529717  0.68127845  0.15010178  1
  Li  Li92  1  0.56515502  0.02486759  0.84785023  1
  Li  Li93  1  0.97513241  0.54028743  0.84785023  1
  Li  Li94  1  0.45971257  0.43484498  0.84785023  1
  Li  Li95  1  0.97513241  0.43484498  0.15214977  1
  Li  Li96  1  0.45971257  0.02486759  0.15214977  1
  Li  Li97  1  0.56515502  0.54028743  0.15214977  1
  Li  Li98  1  0.66666667  0.33333333  0.52860888  1
  Li  Li99  1  0.66666667  0.33333333  0.47139112  1
  Li  Li100  1  0.49744427  0.68548760  0.22271346  1
  Li  Li101  1  0.31451240  0.81195668  0.22271346  1
  Li  Li102  1  0.18804332  0.50255573  0.22271346  1
  Li  Li103  1  0.31451240  0.50255573  0.77728654  1
  Li  Li104  1  0.18804332  0.68548760  0.77728654  1
  Li  Li105  1  0.49744427  0.81195668  0.77728654  1
  Li  Li106  1  0.33333333  0.66666667  0.50000000  1
  Li  Li107  1  0.17949447  0.82050553  0.00000000  1
  Li  Li108  1  0.17949447  0.35898893  0.00000000  1
  Li  Li109  1  0.64101107  0.82050553  0.00000000  1
