# generated using pymatgen
data_LiF
_symmetry_space_group_name_H-M   'P 1'
_cell_length_a   13.51083657
_cell_length_b   13.51083657
_cell_length_c   6.19693966
_cell_angle_alpha   90.00000000
_cell_angle_beta   90.00000000
_cell_angle_gamma   120.00000000
_symmetry_Int_Tables_number   1
_chemical_formula_structural   LiF
_chemical_formula_sum   'Li32 F32'
_cell_volume   979.65324332
_cell_formula_units_Z   32
loop_
 _symmetry_equiv_pos_site_id
 _symmetry_equiv_pos_as_xyz
  1  'x, y, z'
loop_
 _atom_site_type_symbol
 _atom_site_label
 _atom_site_symmetry_multiplicity
 _atom_site_fract_x
 _atom_site_fract_y
 _atom_site_fract_z
 _atom_site_occupancy
  F  F0  1  0.66666667  0.33333333  0.50000000  1
  F  F1  1  0.66666667  0.33333333  0.68681707  1
  F  F2  1  0.66666667  0.33333333  0.31318293  1
  F  F3  1  0.34634447  0.00456028  0.49209600  1
  F  F4  1  0.99543972  0.34178419  0.49209600  1
  F  F5  1  0.65821581  0.65365553  0.49209600  1
  F  F6  1  0.99543972  0.65365553  0.50790400  1
  F  F7  1  0.65821581  0.00456028  0.50790400  1
  F  F8  1  0.34634447  0.34178419  0.50790400  1
  F  F9  1  0.09770520  0.27003106  0.19266714  1
  F  F10  1  0.72996894  0.82767413  0.19266714  1
  F  F11  1  0.17232587  0.90229480  0.19266714  1
  F  F12  1  0.72996894  0.90229480  0.80733286  1
  F  F13  1  0.17232587  0.27003106  0.80733286  1
  F  F14  1  0.09770520  0.82767413  0.80733286  1
  F  F15  1  0.00000000  0.00000000  0.00000000  1
  F  F16  1  0.04980338  0.92831630  0.88277524  1
  F  F17  1  0.07168370  0.12148708  0.88277524  1
  F  F18  1  0.87851292  0.95019662  0.88277524  1
  F  F19  1  0.07168370  0.95019662  0.11722476  1
  F  F20  1  0.87851292  0.92831630  0.11722476  1
  F  F21  1  0.04980338  0.12148708  0.11722476  1
  F  F22  1  0.28333229  0.71666771  0.50000000  1
  F  F23  1  0.28333229  0.56666458  0.50000000  1
  F  F24  1  0.43333542  0.71666771  0.50000000  1
  F  F25  1  0.57056919  0.89310806  0.09586289  1
  F  F26  1  0.10689194  0.67746113  0.09586289  1
  F  F27  1  0.32253887  0.42943081  0.09586289  1
  F  F28  1  0.10689194  0.42943081  0.90413711  1
  F  F29  1  0.32253887  0.89310806  0.90413711  1
  F  F30  1  0.57056919  0.67746113  0.90413711  1
  F  F31  1  0.66666667  0.33333333  0.00000000  1
  Li  Li32  1  0.39260192  0.24614759  0.37329318  1
  Li  Li33  1  -0.24614759  0.14645433  0.37329318  1
  Li  Li34  1  -0.14645433  -0.39260192  0.37329318  1
  Li  Li35  1  -0.24614759  -0.39260192  -0.37329318  1
  Li  Li36  1  -0.14645433  0.24614759  -0.37329318  1
  Li  Li37  1  0.39260192  0.14645433  -0.37329318  1
  Li  Li38  1  0.74423235  0.09934353  0.56979525  1
  Li  Li39  1  0.90065647  0.64488882  0.56979525  1
  Li  Li40  1  0.35511118  0.25576765  0.56979525  1
  Li  Li41  1  0.90065647  0.25576765  0.43020475  1
  Li  Li42  1  0.35511118  0.09934353  0.43020475  1
  Li  Li43  1  0.74423235  0.64488882  0.43020475  1
  Li  Li44  1  0.02967293  0.73912570  0.68482619  1
  Li  Li45  1  0.26087430  0.29054723  0.68482619  1
  Li  Li46  1  0.70945277  0.97032707  0.68482619  1
  Li  Li47  1  0.26087430  0.97032707  0.31517381  1
  Li  Li48  1  0.70945277  0.73912570  0.31517381  1
  Li  Li49  1  0.02967293  0.29054723  0.31517381  1
  Li  Li50  1  0.39294750  0.60705250  0.00000000  1
  Li  Li51  1  0.39294750  0.78589501  -0.00000000  1
  Li  Li52  1  0.21410499  0.60705250  0.00000000  1
  Li  Li53  1  0.16025200  0.16227235  0.85556700  1
  Li  Li54  1  0.83772765  0.99797964  0.85556700  1
  Li  Li55  1  0.00202036  0.83974800  0.85556700  1
  Li  Li56  1  0.83772765  0.83974800  0.14443300  1
  Li  Li57  1  0.00202036  0.16227235  0.14443300  1
  Li  Li58  1  0.16025200  0.99797964  0.14443300  1
  Li  Li59  1  0.21256387  0.78743613  0.50000000  1
  Li  Li60  1  0.21256387  0.42512774  0.50000000  1
  Li  Li61  1  0.57487226  0.78743613  0.50000000  1
  Li  Li62  1  0.33333333  0.66666667  0.00000000  1
  Li  Li63  1  0.00000000  0.00000000  0.50000000  1
