# generated using pymatgen
data_LiF
_symmetry_space_group_name_H-M   'P 1'
_cell_length_a   10.49866049
_cell_length_b   7.31562656
_cell_length_c   6.82806618
_cell_angle_alpha   90.00000000
_cell_angle_beta   90.00000000
_cell_angle_gamma   90.00000000
_symmetry_Int_Tables_number   1
_chemical_formula_structural   LiF
_chemical_formula_sum   'Li20 F20'
_cell_volume   524.42470325
_cell_formula_units_Z   20
loop_
 _symmetry_equiv_pos_site_id
 _symmetry_equiv_pos_as_xyz
  1  'x, y, z'
loop_
 _atom_site_type_symbol
 _atom_site_label
 _atom_site_symmetry_multiplicity
 _atom_site_fract_x
 _atom_site_fract_y
 _atom_site_fract_z
 _atom_site_occupancy
  F  F0  1  0.00000000  0.00000000  0.56255389  1
  F  F1  1  0.50000000  0.50000000  0.93744611  1
  F  F2  1  0.00000000  0.00000000  0.43744611  1
  F  F3  1  0.50000000  0.50000000  0.06255389  1
  F  F4  1  0.00000000  0.50000000  0.50000000  1
  F  F5  1  0.50000000  0.00000000  0.00000000  1
  F  F6  1  0.82590849  0.19057119  0.69057276  1
  F  F7  1  -0.82590849  -0.19057119  0.69057276  1
  F  F8  1  -0.32590849  0.69057119  -0.19057276  1
  F  F9  1  1.32590849  0.30942881  -0.19057276  1
  F  F10  1  -0.82590849  -0.19057119  -0.69057276  1
  F  F11  1  0.82590849  0.19057119  -0.69057276  1
  F  F12  1  1.32590849  0.30942881  1.19057276  1
  F  F13  1  -0.32590849  0.69057119  1.19057276  1
  F  F14  1  0.00000000  0.50000000  0.00000000  1
  F  F15  1  0.50000000  0.00000000  0.50000000  1
  F  F16  1  0.00000000  0.00000000  0.07534698  1
  F  F17  1  0.50000000  0.50000000  0.42465302  1
  F  F18  1  0.00000000  0.00000000  0.92465302  1
  F  F19  1  0.50000000  0.50000000  0.57534698  1
  Li  Li20  1  0.14112587  0.44546384  0.28122932  1
  Li  Li21  1  0.85887413  0.55453616  0.28122932  1
  Li  Li22  1  0.35887413  0.94546384  0.21877068  1
  Li  Li23  1  0.64112587  0.05453616  0.21877068  1
  Li  Li24  1  0.85887413  0.55453616  0.71877068  1
  Li  Li25  1  0.14112587  0.44546384  0.71877068  1
  Li  Li26  1  0.64112587  0.05453616  0.78122932  1
  Li  Li27  1  0.35887413  0.94546384  0.78122932  1
  Li  Li28  1  0.05354219  0.59380724  0.76631880  1
  Li  Li29  1  0.94645781  0.40619276  0.76631880  1
  Li  Li30  1  0.44645781  0.09380724  0.73368120  1
  Li  Li31  1  0.55354219  0.90619276  0.73368120  1
  Li  Li32  1  0.94645781  0.40619276  0.23368120  1
  Li  Li33  1  0.05354219  0.59380724  0.23368120  1
  Li  Li34  1  0.55354219  0.90619276  0.26631880  1
  Li  Li35  1  0.44645781  0.09380724  0.26631880  1
  Li  Li36  1  0.85835326  0.88541473  0.00000000  1
  Li  Li37  1  0.14164674  0.11458527  0.00000000  1
  Li  Li38  1  0.64164674  0.38541473  0.50000000  1
  Li  Li39  1  0.35835326  0.61458527  0.50000000  1
