# generated using pymatgen
data_LiF
_symmetry_space_group_name_H-M   'P 1'
_cell_length_a   6.97741541
_cell_length_b   8.62735314
_cell_length_c   7.72364869
_cell_angle_alpha   90.00000000
_cell_angle_beta   90.00000000
_cell_angle_gamma   90.00000000
_symmetry_Int_Tables_number   1
_chemical_formula_structural   LiF
_chemical_formula_sum   'Li24 F24'
_cell_volume   464.93759721
_cell_formula_units_Z   24
loop_
 _symmetry_equiv_pos_site_id
 _symmetry_equiv_pos_as_xyz
  1  'x, y, z'
loop_
 _atom_site_type_symbol
 _atom_site_label
 _atom_site_symmetry_multiplicity
 _atom_site_fract_x
 _atom_site_fract_y
 _atom_site_fract_z
 _atom_site_occupancy
  F  F0  1  0.00000000  0.50000000  0.50000000  1
  F  F1  1  0.50000000  0.00000000  -0.00000000  1
  F  F2  1  0.00000000  0.00000000  0.50000000  1
  F  F3  1  0.50000000  0.50000000  0.00000000  1
  F  F4  1  0.15902356  0.94505411  0.74669186  1
  F  F5  1  -0.15902356  -0.94505411  0.74669186  1
  F  F6  1  0.34097644  1.44505411  -0.24669186  1
  F  F7  1  0.65902356  -0.44505411  -0.24669186  1
  F  F8  1  -0.15902356  -0.94505411  -0.74669186  1
  F  F9  1  0.15902356  0.94505411  -0.74669186  1
  F  F10  1  0.65902356  -0.44505411  1.24669186  1
  F  F11  1  0.34097644  1.44505411  1.24669186  1
  F  F12  1  0.85603777  0.94242830  0.87030687  1
  F  F13  1  0.14396223  0.05757170  0.87030687  1
  F  F14  1  0.64396223  0.44242830  0.62969313  1
  F  F15  1  0.35603777  0.55757170  0.62969313  1
  F  F16  1  0.14396223  0.05757170  0.12969313  1
  F  F17  1  0.85603777  0.94242830  0.12969313  1
  F  F18  1  0.35603777  0.55757170  0.37030687  1
  F  F19  1  0.64396223  0.44242830  0.37030687  1
  F  F20  1  0.00000000  0.50000000  0.00000000  1
  F  F21  1  0.50000000  0.00000000  0.50000000  1
  F  F22  1  0.00000000  0.00000000  0.00000000  1
  F  F23  1  0.50000000  0.50000000  0.50000000  1
  Li  Li24  1  0.00000000  0.00000000  0.67488547  1
  Li  Li25  1  0.50000000  0.50000000  0.82511453  1
  Li  Li26  1  0.00000000  0.00000000  0.32511453  1
  Li  Li27  1  0.50000000  0.50000000  0.17488547  1
  Li  Li28  1  0.65533054  0.89403689  0.00000000  1
  Li  Li29  1  0.34466946  0.10596311  0.00000000  1
  Li  Li30  1  0.84466946  0.39403689  0.50000000  1
  Li  Li31  1  0.15533054  0.60596311  0.50000000  1
  Li  Li32  1  0.13719791  0.74817853  0.00000000  1
  Li  Li33  1  0.86280209  0.25182147  -0.00000000  1
  Li  Li34  1  0.36280209  0.24817853  0.50000000  1
  Li  Li35  1  0.63719791  0.75182147  0.50000000  1
  Li  Li36  1  0.10007904  0.95463498  0.86266812  1
  Li  Li37  1  0.89992096  0.04536502  0.86266812  1
  Li  Li38  1  0.39992096  0.45463498  0.63733188  1
  Li  Li39  1  0.60007904  0.54536502  0.63733188  1
  Li  Li40  1  0.89992096  0.04536502  0.13733188  1
  Li  Li41  1  0.10007904  0.95463498  0.13733188  1
  Li  Li42  1  0.60007904  0.54536502  0.36266812  1
  Li  Li43  1  0.39992096  0.45463498  0.36266812  1
  Li  Li44  1  0.00000000  0.50000000  0.86398689  1
  Li  Li45  1  0.50000000  0.00000000  0.63601311  1
  Li  Li46  1  0.00000000  0.50000000  0.13601311  1
  Li  Li47  1  0.50000000  0.00000000  0.36398689  1
