# generated using pymatgen
data_Li2YP3
_symmetry_space_group_name_H-M   'P 1'
_cell_length_a   4.36958134
_cell_length_b   4.49801411
_cell_length_c   6.91398320
_cell_angle_alpha   96.22351182
_cell_angle_beta   103.55351490
_cell_angle_gamma   114.99737349
_symmetry_Int_Tables_number   1
_chemical_formula_structural   Li2YP3
_chemical_formula_sum   'Li2 Y1 P3'
_cell_volume   116.36568768
_cell_formula_units_Z   1
loop_
 _symmetry_equiv_pos_site_id
 _symmetry_equiv_pos_as_xyz
  1  'x, y, z'
loop_
 _atom_site_type_symbol
 _atom_site_label
 _atom_site_symmetry_multiplicity
 _atom_site_fract_x
 _atom_site_fract_y
 _atom_site_fract_z
 _atom_site_occupancy
  P  P0  1  0.00000000  0.00000000  0.00000000  1
  P  P1  1  0.50000000  0.50000000  0.50000000  1
  P  P2  1  0.50000000  0.50000000  0.00000000  1
  Li  Li3  1  0.50000000  0.00000000  0.50000000  1
  Li  Li4  1  0.00000000  0.50000000  0.50000000  1
  Y  Y5  1  0.81117685  0.26112630  0.69880692  1
