# generated using pymatgen
data_Li2Si4Te3F12
_symmetry_space_group_name_H-M   'P 1'
_cell_length_a   6.64891340
_cell_length_b   6.64891340
_cell_length_c   26.27483275
_cell_angle_alpha   90.00000000
_cell_angle_beta   90.00000000
_cell_angle_gamma   90.00000000
_symmetry_Int_Tables_number   1
_chemical_formula_structural   Li2Si4Te3F12
_chemical_formula_sum   'Li8 Si16 Te12 F48'
_cell_volume   1161.55910523
_cell_formula_units_Z   4
loop_
 _symmetry_equiv_pos_site_id
 _symmetry_equiv_pos_as_xyz
  1  'x, y, z'
loop_
 _atom_site_type_symbol
 _atom_site_label
 _atom_site_symmetry_multiplicity
 _atom_site_fract_x
 _atom_site_fract_y
 _atom_site_fract_z
 _atom_site_occupancy
  F  F0  1  0.00000000  0.09643919  0.70752911  1
  F  F1  1  0.50000000  0.90356081  0.20752911  1
  F  F2  1  0.15356081  0.75000000  0.95752911  1
  F  F3  1  0.34643919  0.25000000  0.45752911  1
  F  F4  1  0.50000000  0.09643919  0.79247089  1
  F  F5  1  0.00000000  0.90356081  0.29247089  1
  F  F6  1  0.34643919  0.75000000  0.54247089  1
  F  F7  1  0.15356081  0.25000000  0.04247089  1
  F  F8  1  0.50000000  0.59643919  0.20752911  1
  F  F9  1  0.00000000  0.40356081  0.70752911  1
  F  F10  1  0.65356081  0.25000000  0.45752911  1
  F  F11  1  0.84643919  0.75000000  0.95752911  1
  F  F12  1  0.00000000  0.59643919  0.29247089  1
  F  F13  1  0.50000000  0.40356081  0.79247089  1
  F  F14  1  0.84643919  0.25000000  0.04247089  1
  F  F15  1  0.65356081  0.75000000  0.54247089  1
  F  F16  1  0.59969784  0.17990044  0.88127790  1
  F  F17  1  -0.09969784  -0.17990044  1.38127790  1
  F  F18  1  0.07009956  1.34969784  1.13127790  1
  F  F19  1  0.42990044  -0.34969784  1.63127790  1
  F  F20  1  -0.09969784  0.17990044  -0.38127790  1
  F  F21  1  0.59969784  -0.17990044  -0.88127790  1
  F  F22  1  0.42990044  1.34969784  -0.63127790  1
  F  F23  1  0.07009956  -0.34969784  -0.13127790  1
  F  F24  1  -0.59969784  -0.17990044  -0.88127790  1
  F  F25  1  1.09969784  0.17990044  -0.38127790  1
  F  F26  1  0.92990044  -0.34969784  -0.13127790  1
  F  F27  1  0.57009956  1.34969784  -0.63127790  1
  F  F28  1  1.09969784  -0.17990044  1.38127790  1
  F  F29  1  -0.59969784  0.17990044  0.88127790  1
  F  F30  1  0.57009956  -0.34969784  1.63127790  1
  F  F31  1  0.92990044  1.34969784  1.13127790  1
  F  F32  1  1.09969784  0.67990044  1.38127790  1
  F  F33  1  0.40030216  0.32009956  1.88127790  1
  F  F34  1  0.57009956  1.84969784  1.63127790  1
  F  F35  1  0.92990044  0.15030216  2.13127790  1
  F  F36  1  0.40030216  0.67990044  0.11872210  1
  F  F37  1  1.09969784  0.32009956  -0.38127790  1
  F  F38  1  0.92990044  1.84969784  -0.13127790  1
  F  F39  1  0.57009956  0.15030216  0.36872210  1
  F  F40  1  -0.09969784  0.32009956  -0.38127790  1
  F  F41  1  1.59969784  0.67990044  0.11872210  1
  F  F42  1  1.42990044  0.15030216  0.36872210  1
  F  F43  1  1.07009956  1.84969784  -0.13127790  1
  F  F44  1  1.59969784  0.32009956  1.88127790  1
  F  F45  1  -0.09969784  0.67990044  1.38127790  1
  F  F46  1  1.07009956  0.15030216  2.13127790  1
  F  F47  1  1.42990044  1.84969784  1.63127790  1
  Li  Li48  1  0.00000000  0.25000000  0.97179319  1
  Li  Li49  1  0.00000000  0.75000000  0.22179319  1
  Li  Li50  1  0.50000000  0.25000000  0.52820681  1
  Li  Li51  1  0.50000000  0.75000000  0.27820681  1
  Li  Li52  1  0.50000000  0.75000000  0.47179319  1
  Li  Li53  1  0.50000000  0.25000000  0.72179319  1
  Li  Li54  1  0.00000000  0.75000000  0.02820681  1
  Li  Li55  1  0.00000000  0.25000000  0.77820681  1
  Si  Si56  1  0.00000000  0.25000000  0.46880418  1
  Si  Si57  1  0.00000000  0.75000000  0.71880418  1
  Si  Si58  1  0.50000000  0.25000000  0.03119582  1
  Si  Si59  1  0.50000000  0.75000000  0.78119582  1
  Si  Si60  1  0.50000000  0.75000000  0.96880418  1
  Si  Si61  1  0.50000000  0.25000000  0.21880418  1
  Si  Si62  1  0.00000000  0.75000000  0.53119582  1
  Si  Si63  1  0.00000000  0.25000000  0.28119582  1
  Si  Si64  1  0.00000000  0.00000000  0.00000000  1
  Si  Si65  1  0.50000000  0.00000000  0.50000000  1
  Si  Si66  1  0.25000000  0.75000000  0.25000000  1
  Si  Si67  1  0.25000000  0.25000000  0.75000000  1
  Si  Si68  1  0.50000000  0.50000000  0.50000000  1
  Si  Si69  1  0.00000000  0.50000000  0.00000000  1
  Si  Si70  1  0.75000000  0.25000000  0.75000000  1
  Si  Si71  1  0.75000000  0.75000000  0.25000000  1
  Te  Te72  1  0.00000000  0.00000000  0.50000000  1
  Te  Te73  1  0.50000000  0.00000000  0.00000000  1
  Te  Te74  1  0.25000000  0.75000000  0.75000000  1
  Te  Te75  1  0.25000000  0.25000000  0.25000000  1
  Te  Te76  1  0.50000000  0.50000000  0.00000000  1
  Te  Te77  1  0.00000000  0.50000000  0.50000000  1
  Te  Te78  1  0.75000000  0.25000000  0.25000000  1
  Te  Te79  1  0.75000000  0.75000000  0.75000000  1
  Te  Te80  1  0.00000000  0.75000000  0.12500000  1
  Te  Te81  1  0.50000000  0.75000000  0.37500000  1
  Te  Te82  1  0.50000000  0.25000000  0.62500000  1
  Te  Te83  1  0.00000000  0.25000000  0.87500000  1
