# generated using pymatgen
data_LiF
_symmetry_space_group_name_H-M   'P 1'
_cell_length_a   6.40009520
_cell_length_b   6.40009520
_cell_length_c   21.64285437
_cell_angle_alpha   90.00000000
_cell_angle_beta   90.00000000
_cell_angle_gamma   90.00000000
_symmetry_Int_Tables_number   1
_chemical_formula_structural   LiF
_chemical_formula_sum   'Li39 F39'
_cell_volume   886.51768684
_cell_formula_units_Z   39
loop_
 _symmetry_equiv_pos_site_id
 _symmetry_equiv_pos_as_xyz
  1  'x, y, z'
loop_
 _atom_site_type_symbol
 _atom_site_label
 _atom_site_symmetry_multiplicity
 _atom_site_fract_x
 _atom_site_fract_y
 _atom_site_fract_z
 _atom_site_occupancy
  F  F0  1  0.88970823  -0.00000000  0.01335032  1
  F  F1  1  0.11029177  0.00000000  0.01335032  1
  F  F2  1  0.00000000  0.88970823  0.01335032  1
  F  F3  1  0.00000000  0.11029177  0.01335032  1
  F  F4  1  0.11029177  0.00000000  0.98664968  1
  F  F5  1  0.88970823  -0.00000000  0.98664968  1
  F  F6  1  0.00000000  0.88970823  0.98664968  1
  F  F7  1  0.00000000  0.11029177  0.98664968  1
  F  F8  1  0.37898090  0.16166328  0.43286417  1
  F  F9  1  0.62101910  0.83833672  0.43286417  1
  F  F10  1  0.83833672  0.37898090  0.43286417  1
  F  F11  1  0.16166328  0.62101910  0.43286417  1
  F  F12  1  0.62101910  0.16166328  0.56713583  1
  F  F13  1  0.37898090  0.83833672  0.56713583  1
  F  F14  1  0.16166328  0.37898090  0.56713583  1
  F  F15  1  0.83833672  0.62101910  0.56713583  1
  F  F16  1  0.62101910  0.83833672  0.56713583  1
  F  F17  1  0.37898090  0.16166328  0.56713583  1
  F  F18  1  0.16166328  0.62101910  0.56713583  1
  F  F19  1  0.83833672  0.37898090  0.56713583  1
  F  F20  1  0.37898090  0.83833672  0.43286417  1
  F  F21  1  0.62101910  0.16166328  0.43286417  1
  F  F22  1  0.83833672  0.62101910  0.43286417  1
  F  F23  1  0.16166328  0.37898090  0.43286417  1
  F  F24  1  0.57292067  0.57292067  0.50000000  1
  F  F25  1  0.42707933  0.42707933  0.50000000  1
  F  F26  1  0.42707933  0.57292067  0.50000000  1
  F  F27  1  0.57292067  0.42707933  0.50000000  1
  F  F28  1  0.00000000  0.00000000  0.12473397  1
  F  F29  1  0.00000000  0.00000000  0.87526603  1
  F  F30  1  0.84319133  0.44885024  0.50000000  1
  F  F31  1  0.15680867  0.55114976  0.50000000  1
  F  F32  1  0.55114976  0.84319133  0.50000000  1
  F  F33  1  0.44885024  0.15680867  0.50000000  1
  F  F34  1  0.15680867  0.44885024  0.50000000  1
  F  F35  1  0.84319133  0.55114976  0.50000000  1
  F  F36  1  0.44885024  0.84319133  0.50000000  1
  F  F37  1  0.55114976  0.15680867  0.50000000  1
  F  F38  1  0.50000000  0.50000000  0.00000000  1
  Li  Li39  1  0.00000000  0.50000000  0.00000000  1
  Li  Li40  1  0.50000000  0.00000000  0.00000000  1
  Li  Li41  1  0.11785444  0.11785444  0.95846522  1
  Li  Li42  1  0.88214556  0.88214556  0.95846522  1
  Li  Li43  1  0.88214556  0.11785444  0.95846522  1
  Li  Li44  1  0.11785444  0.88214556  0.95846522  1
  Li  Li45  1  0.88214556  0.11785444  0.04153478  1
  Li  Li46  1  0.11785444  0.88214556  0.04153478  1
  Li  Li47  1  0.11785444  0.11785444  0.04153478  1
  Li  Li48  1  0.88214556  0.88214556  0.04153478  1
  Li  Li49  1  0.00000000  0.00000000  0.50000000  1
  Li  Li50  1  0.38179122  0.77856568  0.15946042  1
  Li  Li51  1  -0.38179122  -0.77856568  0.15946042  1
  Li  Li52  1  -0.77856568  0.38179122  0.15946042  1
  Li  Li53  1  0.77856568  -0.38179122  0.15946042  1
  Li  Li54  1  -0.38179122  0.77856568  -0.15946042  1
  Li  Li55  1  0.38179122  -0.77856568  -0.15946042  1
  Li  Li56  1  0.77856568  0.38179122  -0.15946042  1
  Li  Li57  1  -0.77856568  -0.38179122  -0.15946042  1
  Li  Li58  1  -0.38179122  -0.77856568  -0.15946042  1
  Li  Li59  1  0.38179122  0.77856568  -0.15946042  1
  Li  Li60  1  0.77856568  -0.38179122  -0.15946042  1
  Li  Li61  1  -0.77856568  0.38179122  -0.15946042  1
  Li  Li62  1  0.38179122  -0.77856568  0.15946042  1
  Li  Li63  1  -0.38179122  0.77856568  0.15946042  1
  Li  Li64  1  -0.77856568  -0.38179122  0.15946042  1
  Li  Li65  1  0.77856568  0.38179122  0.15946042  1
  Li  Li66  1  0.66848371  0.00000000  0.95447724  1
  Li  Li67  1  0.33151629  0.00000000  0.95447724  1
  Li  Li68  1  0.00000000  0.66848371  0.95447724  1
  Li  Li69  1  0.00000000  0.33151629  0.95447724  1
  Li  Li70  1  0.33151629  0.00000000  0.04552276  1
  Li  Li71  1  0.66848371  0.00000000  0.04552276  1
  Li  Li72  1  0.00000000  0.66848371  0.04552276  1
  Li  Li73  1  0.00000000  0.33151629  0.04552276  1
  Li  Li74  1  0.29327347  0.50000000  0.00000000  1
  Li  Li75  1  0.70672653  0.50000000  0.00000000  1
  Li  Li76  1  0.50000000  0.29327347  0.00000000  1
  Li  Li77  1  0.50000000  0.70672653  0.00000000  1
