# generated using pymatgen
data_Li3Y2(P2Se)2
_symmetry_space_group_name_H-M   'P 1'
_cell_length_a   4.94382738
_cell_length_b   5.26207010
_cell_length_c   7.16954379
_cell_angle_alpha   94.81120883
_cell_angle_beta   100.47781260
_cell_angle_gamma   109.32471369
_symmetry_Int_Tables_number   1
_chemical_formula_structural   Li3Y2(P2Se)2
_chemical_formula_sum   'Li3 Y2 P4 Se2'
_cell_volume   170.97244831
_cell_formula_units_Z   1
loop_
 _symmetry_equiv_pos_site_id
 _symmetry_equiv_pos_as_xyz
  1  'x, y, z'
loop_
 _atom_site_type_symbol
 _atom_site_label
 _atom_site_symmetry_multiplicity
 _atom_site_fract_x
 _atom_site_fract_y
 _atom_site_fract_z
 _atom_site_occupancy
  Se  Se0  1  0.00000000  0.00000000  0.00000000  1
  Se  Se1  1  0.50000000  0.50000000  0.50000000  1
  P  P2  1  0.50000000  0.50000000  0.00000000  1
  P  P3  1  0.50000000  0.00000000  0.50000000  1
  P  P4  1  0.00000000  0.50000000  0.50000000  1
  P  P5  1  0.73002048  0.20035184  0.68099770  1
  Li  Li6  1  0.85513318  0.73182667  0.69320673  1
  Li  Li7  1  0.39578600  0.99332462  0.51643304  1
  Li  Li8  1  0.54034803  0.17361116  0.37356048  1
  Y  Y9  1  0.42470115  0.43850160  0.12202615  1
  Y  Y10  1  0.58521871  0.01516911  0.72656101  1
