# generated using pymatgen
data_LiF
_symmetry_space_group_name_H-M   'P 1'
_cell_length_a   6.15890106
_cell_length_b   5.71335038
_cell_length_c   7.23891144
_cell_angle_alpha   90.00000000
_cell_angle_beta   90.00000000
_cell_angle_gamma   90.00000000
_symmetry_Int_Tables_number   1
_chemical_formula_structural   LiF
_chemical_formula_sum   'Li8 F8'
_cell_volume   254.72252434
_cell_formula_units_Z   8
loop_
 _symmetry_equiv_pos_site_id
 _symmetry_equiv_pos_as_xyz
  1  'x, y, z'
loop_
 _atom_site_type_symbol
 _atom_site_label
 _atom_site_symmetry_multiplicity
 _atom_site_fract_x
 _atom_site_fract_y
 _atom_site_fract_z
 _atom_site_occupancy
  F  F0  1  0.40097072  0.70819024  0.00000000  1
  F  F1  1  0.59902928  0.29180976  0.00000000  1
  F  F2  1  0.09902928  0.20819024  0.00000000  1
  F  F3  1  0.90097072  0.79180976  0.00000000  1
  F  F4  1  0.27356541  0.78994975  0.00000000  1
  F  F5  1  0.72643459  0.21005025  0.00000000  1
  F  F6  1  0.22643459  0.28994975  0.00000000  1
  F  F7  1  0.77356541  0.71005025  0.00000000  1
  Li  Li8  1  0.00000000  0.50000000  0.50000000  1
  Li  Li9  1  0.50000000  0.00000000  0.50000000  1
  Li  Li10  1  0.00000000  0.00000000  0.00000000  1
  Li  Li11  1  0.50000000  0.50000000  0.00000000  1
  Li  Li12  1  0.74028277  0.56528947  0.50000000  1
  Li  Li13  1  -0.74028277  -0.56528947  0.50000000  1
  Li  Li14  1  -0.24028277  1.06528947  0.50000000  1
  Li  Li15  1  1.24028277  -0.06528947  0.50000000  1
