# generated using pymatgen
data_Li2Y2MoP3Se2
_symmetry_space_group_name_H-M   'P 1'
_cell_length_a   4.48063695
_cell_length_b   4.77778430
_cell_length_c   6.94631292
_cell_angle_alpha   95.72835288
_cell_angle_beta   102.47516166
_cell_angle_gamma   113.00851682
_symmetry_Int_Tables_number   1
_chemical_formula_structural   Li2Y2MoP3Se2
_chemical_formula_sum   'Li2 Y2 Mo1 P3 Se2'
_cell_volume   130.80327849
_cell_formula_units_Z   1
loop_
 _symmetry_equiv_pos_site_id
 _symmetry_equiv_pos_as_xyz
  1  'x, y, z'
loop_
 _atom_site_type_symbol
 _atom_site_label
 _atom_site_symmetry_multiplicity
 _atom_site_fract_x
 _atom_site_fract_y
 _atom_site_fract_z
 _atom_site_occupancy
  Y  Y0  1  0.00000000  0.00000000  0.00000000  1
  Y  Y1  1  0.50000000  0.50000000  0.50000000  1
  P  P2  1  0.50000000  0.50000000  0.00000000  1
  P  P3  1  0.50000000  0.00000000  0.50000000  1
  P  P4  1  0.00000000  0.50000000  0.50000000  1
  Mo  Mo5  1  0.73970844  0.01997407  0.86210975  1
  Se  Se6  1  0.29924039  0.17484288  0.29293913  1
  Se  Se7  1  0.40661538  0.50125629  0.10040195  1
  Li  Li8  1  0.59217834  0.33887363  0.36104516  1
  Li  Li9  1  0.50042921  0.48440973  0.09332428  1
