# generated using pymatgen
data_LiF
_symmetry_space_group_name_H-M   'P 1'
_cell_length_a   6.26081359
_cell_length_b   7.16407510
_cell_length_c   11.95492225
_cell_angle_alpha   90.00000000
_cell_angle_beta   90.00000000
_cell_angle_gamma   90.00000000
_symmetry_Int_Tables_number   1
_chemical_formula_structural   LiF
_chemical_formula_sum   'Li24 F24'
_cell_volume   536.21339582
_cell_formula_units_Z   24
loop_
 _symmetry_equiv_pos_site_id
 _symmetry_equiv_pos_as_xyz
  1  'x, y, z'
loop_
 _atom_site_type_symbol
 _atom_site_label
 _atom_site_symmetry_multiplicity
 _atom_site_fract_x
 _atom_site_fract_y
 _atom_site_fract_z
 _atom_site_occupancy
  F  F0  1  0.16146519  0.25000000  0.95101155  1
  F  F1  1  0.33853481  0.75000000  0.45101155  1
  F  F2  1  0.83853481  0.75000000  0.04898845  1
  F  F3  1  0.66146519  0.25000000  0.54898845  1
  F  F4  1  0.71770233  0.15357139  0.82655209  1
  F  F5  1  0.78229767  0.84642861  0.32655209  1
  F  F6  1  0.28229767  0.65357139  0.17344791  1
  F  F7  1  0.21770233  0.34642861  0.67344791  1
  F  F8  1  0.28229767  0.84642861  0.17344791  1
  F  F9  1  0.21770233  0.15357139  0.67344791  1
  F  F10  1  0.71770233  0.34642861  0.82655209  1
  F  F11  1  0.78229767  0.65357139  0.32655209  1
  F  F12  1  0.75390036  0.95784513  0.47733295  1
  F  F13  1  0.74609964  0.04215487  0.97733295  1
  F  F14  1  0.24609964  0.45784513  0.52266705  1
  F  F15  1  0.25390036  0.54215487  0.02266705  1
  F  F16  1  0.24609964  0.04215487  0.52266705  1
  F  F17  1  0.25390036  0.95784513  0.02266705  1
  F  F18  1  0.75390036  0.54215487  0.47733295  1
  F  F19  1  0.74609964  0.45784513  0.97733295  1
  F  F20  1  0.30593229  0.25000000  0.70502457  1
  F  F21  1  0.19406771  0.75000000  0.20502457  1
  F  F22  1  0.69406771  0.75000000  0.29497543  1
  F  F23  1  0.80593229  0.25000000  0.79497543  1
  Li  Li24  1  0.21692830  0.11482365  0.75250146  1
  Li  Li25  1  0.28307170  -0.11482365  1.25250146  1
  Li  Li26  1  -0.21692830  0.61482365  -0.75250146  1
  Li  Li27  1  0.71692830  0.38517635  -0.25250146  1
  Li  Li28  1  -0.21692830  -0.11482365  -0.75250146  1
  Li  Li29  1  0.71692830  0.11482365  -0.25250146  1
  Li  Li30  1  0.21692830  0.38517635  0.75250146  1
  Li  Li31  1  0.28307170  0.61482365  1.25250146  1
  Li  Li32  1  0.80383655  0.25000000  0.00647147  1
  Li  Li33  1  0.69616345  0.75000000  0.50647147  1
  Li  Li34  1  0.19616345  0.75000000  0.99352853  1
  Li  Li35  1  0.30383655  0.25000000  0.49352853  1
  Li  Li36  1  0.15095975  0.25000000  0.16941807  1
  Li  Li37  1  0.34904025  0.75000000  0.66941807  1
  Li  Li38  1  0.84904025  0.75000000  0.83058193  1
  Li  Li39  1  0.65095975  0.25000000  0.33058193  1
  Li  Li40  1  0.08050305  0.25000000  0.05034521  1
  Li  Li41  1  0.41949695  0.75000000  0.55034521  1
  Li  Li42  1  0.91949695  0.75000000  0.94965479  1
  Li  Li43  1  0.58050305  0.25000000  0.44965479  1
  Li  Li44  1  0.00000000  0.00000000  0.00000000  1
  Li  Li45  1  0.50000000  0.00000000  0.50000000  1
  Li  Li46  1  0.00000000  0.50000000  0.00000000  1
  Li  Li47  1  0.50000000  0.50000000  0.50000000  1
