# generated using pymatgen
data_LiF
_symmetry_space_group_name_H-M   'P 1'
_cell_length_a   8.48874326
_cell_length_b   8.48874326
_cell_length_c   19.10670454
_cell_angle_alpha   90.00000000
_cell_angle_beta   90.00000000
_cell_angle_gamma   120.00000000
_symmetry_Int_Tables_number   1
_chemical_formula_structural   LiF
_chemical_formula_sum   'Li73 F73'
_cell_volume   1192.34851902
_cell_formula_units_Z   73
loop_
 _symmetry_equiv_pos_site_id
 _symmetry_equiv_pos_as_xyz
  1  'x, y, z'
loop_
 _atom_site_type_symbol
 _atom_site_label
 _atom_site_symmetry_multiplicity
 _atom_site_fract_x
 _atom_site_fract_y
 _atom_site_fract_z
 _atom_site_occupancy
  F  F0  1  0.97931066  0.64964081  0.69302954  1
  F  F1  1  0.35035919  0.32966984  0.69302954  1
  F  F2  1  0.67033016  0.02068934  0.69302954  1
  F  F3  1  0.35035919  0.02068934  0.30697046  1
  F  F4  1  0.67033016  0.64964081  0.30697046  1
  F  F5  1  0.97931066  0.32966984  0.30697046  1
  F  F6  1  0.00000000  0.00000000  0.50000000  1
  F  F7  1  0.71819708  0.80573631  0.12204077  1
  F  F8  1  0.19426369  0.91246077  0.12204077  1
  F  F9  1  0.08753923  0.28180292  0.12204077  1
  F  F10  1  0.19426369  0.28180292  0.87795923  1
  F  F11  1  0.08753923  0.80573631  0.87795923  1
  F  F12  1  0.71819708  0.91246077  0.87795923  1
  F  F13  1  0.66666667  0.33333333  0.14349474  1
  F  F14  1  0.66666667  0.33333333  0.85650526  1
  F  F15  1  0.86868484  0.35065512  0.87429472  1
  F  F16  1  0.64934488  0.51802972  0.87429472  1
  F  F17  1  0.48197028  0.13131516  0.87429472  1
  F  F18  1  0.64934488  0.13131516  0.12570528  1
  F  F19  1  0.48197028  0.35065512  0.12570528  1
  F  F20  1  0.86868484  0.51802972  0.12570528  1
  F  F21  1  0.13792443  0.31882142  0.71280091  1
  F  F22  1  0.68117858  0.81910302  0.71280091  1
  F  F23  1  0.18089698  0.86207557  0.71280091  1
  F  F24  1  0.68117858  0.86207557  0.28719909  1
  F  F25  1  0.18089698  0.31882142  0.28719909  1
  F  F26  1  0.13792443  0.81910302  0.28719909  1
  F  F27  1  0.66666667  0.33333333  0.50000000  1
  F  F28  1  0.89018073  0.09743637  0.68504587  1
  F  F29  1  0.90256363  0.79274436  0.68504587  1
  F  F30  1  0.20725564  0.10981927  0.68504587  1
  F  F31  1  0.90256363  0.10981927  0.31495413  1
  F  F32  1  0.20725564  0.09743637  0.31495413  1
  F  F33  1  0.89018073  0.79274436  0.31495413  1
  F  F34  1  0.53309645  0.82256604  0.27650428  1
  F  F35  1  0.17743396  0.71053041  0.27650428  1
  F  F36  1  0.28946959  0.46690355  0.27650428  1
  F  F37  1  0.17743396  0.46690355  0.72349572  1
  F  F38  1  0.28946959  0.82256604  0.72349572  1
  F  F39  1  0.53309645  0.71053041  0.72349572  1
  F  F40  1  0.25601164  0.74398836  0.50000000  1
  F  F41  1  0.25601164  0.51202328  0.50000000  1
  F  F42  1  0.48797672  0.74398836  0.50000000  1
  F  F43  1  0.93457204  0.62263303  0.00625447  1
  F  F44  1  0.37736697  0.31193902  0.00625447  1
  F  F45  1  0.68806098  0.06542796  0.00625447  1
  F  F46  1  0.37736697  0.06542796  0.99374553  1
  F  F47  1  0.68806098  0.62263303  0.99374553  1
  F  F48  1  0.93457204  0.31193902  0.99374553  1
  F  F49  1  0.87460447  0.74161282  0.83598181  1
  F  F50  1  0.25838718  0.13299165  0.83598181  1
  F  F51  1  0.86700835  0.12539553  0.83598181  1
  F  F52  1  0.25838718  0.12539553  0.16401819  1
  F  F53  1  0.86700835  0.74161282  0.16401819  1
  F  F54  1  0.87460447  0.13299165  0.16401819  1
  F  F55  1  0.82750298  0.47447817  0.39966483  1
  F  F56  1  0.52552183  0.35302481  0.39966483  1
  F  F57  1  0.64697519  0.17249702  0.39966483  1
  F  F58  1  0.52552183  0.17249702  0.60033517  1
  F  F59  1  0.64697519  0.47447817  0.60033517  1
  F  F60  1  0.82750298  0.35302481  0.60033517  1
  F  F61  1  0.55248816  0.10663787  0.03049298  1
  F  F62  1  0.89336213  0.44585029  0.03049298  1
  F  F63  1  0.55414971  0.44751184  0.03049298  1
  F  F64  1  0.89336213  0.44751184  0.96950702  1
  F  F65  1  0.55414971  0.10663787  0.96950702  1
  F  F66  1  0.55248816  0.44585029  0.96950702  1
  F  F67  1  0.35840626  0.07652472  0.15685669  1
  F  F68  1  0.92347528  0.28188154  0.15685669  1
  F  F69  1  0.71811846  0.64159374  0.15685669  1
  F  F70  1  0.92347528  0.64159374  0.84314331  1
  F  F71  1  0.71811846  0.07652472  0.84314331  1
  F  F72  1  0.35840626  0.28188154  0.84314331  1
  Li  Li73  1  0.33333333  0.66666667  0.00000000  1
  Li  Li74  1  0.00000000  0.00000000  0.95793517  1
  Li  Li75  1  0.00000000  0.00000000  0.04206483  1
  Li  Li76  1  0.66666667  0.33333333  0.55257172  1
  Li  Li77  1  0.66666667  0.33333333  0.44742828  1
  Li  Li78  1  0.00816120  0.22386437  0.68237035  1
  Li  Li79  1  -0.22386437  -0.21570316  0.68237035  1
  Li  Li80  1  0.21570316  -0.00816120  0.68237035  1
  Li  Li81  1  -0.22386437  -0.00816120  -0.68237035  1
  Li  Li82  1  0.21570316  0.22386437  -0.68237035  1
  Li  Li83  1  0.00816120  -0.21570316  -0.68237035  1
  Li  Li84  1  0.66666667  0.33333333  0.80766895  1
  Li  Li85  1  0.66666667  0.33333333  0.19233105  1
  Li  Li86  1  0.73642717  0.26357283  0.00000000  1
  Li  Li87  1  0.73642717  0.47285434  0.00000000  1
  Li  Li88  1  0.52714566  0.26357283  -0.00000000  1
  Li  Li89  1  0.88791268  0.44042229  0.24766351  1
  Li  Li90  1  0.55957771  0.44749039  0.24766351  1
  Li  Li91  1  0.55250961  0.11208732  0.24766351  1
  Li  Li92  1  0.55957771  0.11208732  0.75233649  1
  Li  Li93  1  0.55250961  0.44042229  0.75233649  1
  Li  Li94  1  0.88791268  0.44749039  0.75233649  1
  Li  Li95  1  0.93253176  0.09919222  0.11892642  1
  Li  Li96  1  0.90080778  0.83333954  0.11892642  1
  Li  Li97  1  0.16666046  0.06746824  0.11892642  1
  Li  Li98  1  0.90080778  0.06746824  0.88107358  1
  Li  Li99  1  0.16666046  0.09919222  0.88107358  1
  Li  Li100  1  0.93253176  0.83333954  0.88107358  1
  Li  Li101  1  0.70580015  0.61565074  0.77707030  1
  Li  Li102  1  0.38434926  0.09014942  0.77707030  1
  Li  Li103  1  0.90985058  0.29419985  0.77707030  1
  Li  Li104  1  0.38434926  0.29419985  0.22292970  1
  Li  Li105  1  0.90985058  0.61565074  0.22292970  1
  Li  Li106  1  0.70580015  0.09014942  0.22292970  1
  Li  Li107  1  0.55490662  0.94539842  0.65993159  1
  Li  Li108  1  0.05460158  0.60950820  0.65993159  1
  Li  Li109  1  0.39049180  0.44509338  0.65993159  1
  Li  Li110  1  0.05460158  0.44509338  0.34006841  1
  Li  Li111  1  0.39049180  0.94539842  0.34006841  1
  Li  Li112  1  0.55490662  0.60950820  0.34006841  1
  Li  Li113  1  0.54497895  0.62648730  0.08614752  1
  Li  Li114  1  0.37351270  0.91849164  0.08614752  1
  Li  Li115  1  0.08150836  0.45502105  0.08614752  1
  Li  Li116  1  0.37351270  0.45502105  0.91385248  1
  Li  Li117  1  0.08150836  0.62648730  0.91385248  1
  Li  Li118  1  0.54497895  0.91849164  0.91385248  1
  Li  Li119  1  0.91625345  0.21251945  0.06339867  1
  Li  Li120  1  0.78748055  0.70373399  0.06339867  1
  Li  Li121  1  0.29626601  0.08374655  0.06339867  1
  Li  Li122  1  0.78748055  0.08374655  0.93660133  1
  Li  Li123  1  0.29626601  0.21251945  0.93660133  1
  Li  Li124  1  0.91625345  0.70373399  0.93660133  1
  Li  Li125  1  0.87503407  0.29157846  0.92303468  1
  Li  Li126  1  0.70842154  0.58345561  0.92303468  1
  Li  Li127  1  0.41654439  0.12496593  0.92303468  1
  Li  Li128  1  0.70842154  0.12496593  0.07696532  1
  Li  Li129  1  0.41654439  0.29157846  0.07696532  1
  Li  Li130  1  0.87503407  0.58345561  0.07696532  1
  Li  Li131  1  0.33333333  0.66666667  0.50000000  1
  Li  Li132  1  0.88099650  0.72770209  0.75210005  1
  Li  Li133  1  0.27229791  0.15329441  0.75210005  1
  Li  Li134  1  0.84670559  0.11900350  0.75210005  1
  Li  Li135  1  0.27229791  0.11900350  0.24789995  1
  Li  Li136  1  0.84670559  0.72770209  0.24789995  1
  Li  Li137  1  0.88099650  0.15329441  0.24789995  1
  Li  Li138  1  0.32512274  0.54447744  0.72816410  1
  Li  Li139  1  0.45552256  0.78064530  0.72816410  1
  Li  Li140  1  0.21935470  0.67487726  0.72816410  1
  Li  Li141  1  0.45552256  0.67487726  0.27183590  1
  Li  Li142  1  0.21935470  0.54447744  0.27183590  1
  Li  Li143  1  0.32512274  0.78064530  0.27183590  1
  Li  Li144  1  0.00000000  0.00000000  0.85872827  1
  Li  Li145  1  0.00000000  0.00000000  0.14127173  1
