# generated using pymatgen
data_LiF
_symmetry_space_group_name_H-M   'P 1'
_cell_length_a   11.11495634
_cell_length_b   11.11495634
_cell_length_c   11.30663316
_cell_angle_alpha   90.00000000
_cell_angle_beta   90.00000000
_cell_angle_gamma   120.00000000
_symmetry_Int_Tables_number   1
_chemical_formula_structural   LiF
_chemical_formula_sum   'Li36 F36'
_cell_volume   1209.70494454
_cell_formula_units_Z   36
loop_
 _symmetry_equiv_pos_site_id
 _symmetry_equiv_pos_as_xyz
  1  'x, y, z'
loop_
 _atom_site_type_symbol
 _atom_site_label
 _atom_site_symmetry_multiplicity
 _atom_site_fract_x
 _atom_site_fract_y
 _atom_site_fract_z
 _atom_site_occupancy
  F  F0  1  0.02102581  0.35678075  0.47616982  1
  F  F1  1  0.64321925  0.66424506  0.47616982  1
  F  F2  1  0.33575494  0.97897419  0.47616982  1
  F  F3  1  0.64321925  0.97897419  0.52383018  1
  F  F4  1  0.33575494  0.35678075  0.52383018  1
  F  F5  1  0.02102581  0.66424506  0.52383018  1
  F  F6  1  0.07772637  0.07441580  0.77749503  1
  F  F7  1  0.92558420  0.00331057  0.77749503  1
  F  F8  1  0.99668943  0.92227363  0.77749503  1
  F  F9  1  0.92558420  0.92227363  0.22250497  1
  F  F10  1  0.99668943  0.07441580  0.22250497  1
  F  F11  1  0.07772637  0.00331057  0.22250497  1
  F  F12  1  0.00853125  0.04171758  0.17995782  1
  F  F13  1  0.95828242  0.96681367  0.17995782  1
  F  F14  1  0.03318633  0.99146875  0.17995782  1
  F  F15  1  0.95828242  0.99146875  0.82004218  1
  F  F16  1  0.03318633  0.04171758  0.82004218  1
  F  F17  1  0.00853125  0.96681367  0.82004218  1
  F  F18  1  0.66241246  0.16563078  0.09051328  1
  F  F19  1  0.83436922  0.49678167  0.09051328  1
  F  F20  1  0.50321833  0.33758754  0.09051328  1
  F  F21  1  0.83436922  0.33758754  0.90948672  1
  F  F22  1  0.50321833  0.16563078  0.90948672  1
  F  F23  1  0.66241246  0.49678167  0.90948672  1
  F  F24  1  0.29935339  0.55491200  0.94306632  1
  F  F25  1  0.44508800  0.74444139  0.94306632  1
  F  F26  1  0.25555861  0.70064661  0.94306632  1
  F  F27  1  0.44508800  0.70064661  0.05693368  1
  F  F28  1  0.25555861  0.55491200  0.05693368  1
  F  F29  1  0.29935339  0.74444139  0.05693368  1
  F  F30  1  0.32607789  0.69897922  0.65650026  1
  F  F31  1  0.30102078  0.62709868  0.65650026  1
  F  F32  1  0.37290132  0.67392211  0.65650026  1
  F  F33  1  0.30102078  0.67392211  0.34349974  1
  F  F34  1  0.37290132  0.69897922  0.34349974  1
  F  F35  1  0.32607789  0.62709868  0.34349974  1
  Li  Li36  1  0.73198663  0.12431851  0.48204499  1
  Li  Li37  1  -0.12431851  0.60766812  0.48204499  1
  Li  Li38  1  -0.60766812  -0.73198663  0.48204499  1
  Li  Li39  1  -0.12431851  -0.73198663  -0.48204499  1
  Li  Li40  1  -0.60766812  0.12431851  -0.48204499  1
  Li  Li41  1  0.73198663  0.60766812  -0.48204499  1
  Li  Li42  1  0.00000000  0.00000000  0.50000000  1
  Li  Li43  1  0.76653937  0.69130001  0.95992024  1
  Li  Li44  1  0.30869999  0.07523935  0.95992024  1
  Li  Li45  1  0.92476065  0.23346063  0.95992024  1
  Li  Li46  1  0.30869999  0.23346063  0.04007976  1
  Li  Li47  1  0.92476065  0.69130001  0.04007976  1
  Li  Li48  1  0.76653937  0.07523935  0.04007976  1
  Li  Li49  1  0.66666667  0.33333333  0.50000000  1
  Li  Li50  1  0.45328133  0.54671867  0.50000000  1
  Li  Li51  1  0.45328133  0.90656265  0.50000000  1
  Li  Li52  1  0.09343735  0.54671867  0.50000000  1
  Li  Li53  1  0.32465933  0.22715528  0.57993615  1
  Li  Li54  1  0.77284472  0.09750406  0.57993615  1
  Li  Li55  1  0.90249594  0.67534067  0.57993615  1
  Li  Li56  1  0.77284472  0.67534067  0.42006385  1
  Li  Li57  1  0.90249594  0.22715528  0.42006385  1
  Li  Li58  1  0.32465933  0.09750406  0.42006385  1
  Li  Li59  1  0.07460276  0.41756870  0.55045901  1
  Li  Li60  1  0.58243130  0.65703407  0.55045901  1
  Li  Li61  1  0.34296593  0.92539724  0.55045901  1
  Li  Li62  1  0.58243130  0.92539724  0.44954099  1
  Li  Li63  1  0.34296593  0.41756870  0.44954099  1
  Li  Li64  1  0.07460276  0.65703407  0.44954099  1
  Li  Li65  1  0.46958385  0.49348514  0.81868158  1
  Li  Li66  1  0.50651486  0.97609871  0.81868158  1
  Li  Li67  1  0.02390129  0.53041615  0.81868158  1
  Li  Li68  1  0.50651486  0.53041615  0.18131842  1
  Li  Li69  1  0.02390129  0.49348514  0.18131842  1
  Li  Li70  1  0.46958385  0.97609871  0.18131842  1
  Li  Li71  1  0.33333333  0.66666667  0.00000000  1
