# generated using pymatgen
data_LiF
_symmetry_space_group_name_H-M   'P 1'
_cell_length_a   15.41558877
_cell_length_b   6.31586766
_cell_length_c   7.66980614
_cell_angle_alpha   90.00000000
_cell_angle_beta   90.00000000
_cell_angle_gamma   90.00000000
_symmetry_Int_Tables_number   1
_chemical_formula_structural   LiF
_chemical_formula_sum   'Li36 F36'
_cell_volume   746.75394442
_cell_formula_units_Z   36
loop_
 _symmetry_equiv_pos_site_id
 _symmetry_equiv_pos_as_xyz
  1  'x, y, z'
loop_
 _atom_site_type_symbol
 _atom_site_label
 _atom_site_symmetry_multiplicity
 _atom_site_fract_x
 _atom_site_fract_y
 _atom_site_fract_z
 _atom_site_occupancy
  F  F0  1  0.31442683  0.25000000  0.91640060  1
  F  F1  1  0.18557317  0.75000000  0.41640060  1
  F  F2  1  0.68557317  0.75000000  0.08359940  1
  F  F3  1  0.81442683  0.25000000  0.58359940  1
  F  F4  1  0.31969179  0.25000000  0.56421061  1
  F  F5  1  0.18030821  0.75000000  0.06421061  1
  F  F6  1  0.68030821  0.75000000  0.43578939  1
  F  F7  1  0.81969179  0.25000000  0.93578939  1
  F  F8  1  0.16303852  0.25000000  0.26884796  1
  F  F9  1  0.33696148  0.75000000  0.76884796  1
  F  F10  1  0.83696148  0.75000000  0.73115204  1
  F  F11  1  0.66303852  0.25000000  0.23115204  1
  F  F12  1  0.00000000  0.00000000  0.00000000  1
  F  F13  1  0.50000000  0.00000000  0.50000000  1
  F  F14  1  0.00000000  0.50000000  -0.00000000  1
  F  F15  1  0.50000000  0.50000000  0.50000000  1
  F  F16  1  0.35461547  0.47004322  0.13841865  1
  F  F17  1  0.14538453  0.52995678  0.63841865  1
  F  F18  1  0.64538453  0.97004322  0.86158135  1
  F  F19  1  0.85461547  0.02995678  0.36158135  1
  F  F20  1  0.64538453  0.52995678  0.86158135  1
  F  F21  1  0.85461547  0.47004322  0.36158135  1
  F  F22  1  0.35461547  0.02995678  0.13841865  1
  F  F23  1  0.14538453  0.97004322  0.63841865  1
  F  F24  1  0.30027118  0.25000000  0.27598890  1
  F  F25  1  0.19972882  0.75000000  0.77598890  1
  F  F26  1  0.69972882  0.75000000  0.72401110  1
  F  F27  1  0.80027118  0.25000000  0.22401110  1
  F  F28  1  0.39610725  0.98867034  0.05203838  1
  F  F29  1  0.10389275  0.01132966  0.55203838  1
  F  F30  1  0.60389275  0.48867034  0.94796162  1
  F  F31  1  0.89610725  0.51132966  0.44796162  1
  F  F32  1  0.60389275  0.01132966  0.94796162  1
  F  F33  1  0.89610725  0.98867034  0.44796162  1
  F  F34  1  0.39610725  0.51132966  0.05203838  1
  F  F35  1  0.10389275  0.48867034  0.55203838  1
  Li  Li36  1  0.21723362  0.48256834  0.92962699  1
  Li  Li37  1  0.28276638  -0.48256834  1.42962699  1
  Li  Li38  1  -0.21723362  0.98256834  -0.92962699  1
  Li  Li39  1  0.71723362  0.01743166  -0.42962699  1
  Li  Li40  1  -0.21723362  -0.48256834  -0.92962699  1
  Li  Li41  1  0.71723362  0.48256834  -0.42962699  1
  Li  Li42  1  0.21723362  0.01743166  0.92962699  1
  Li  Li43  1  0.28276638  0.98256834  1.42962699  1
  Li  Li44  1  0.65152304  0.11264552  0.47284705  1
  Li  Li45  1  0.84847696  0.88735448  0.97284705  1
  Li  Li46  1  0.34847696  0.61264552  0.52715295  1
  Li  Li47  1  0.15152304  0.38735448  0.02715295  1
  Li  Li48  1  0.34847696  0.88735448  0.52715295  1
  Li  Li49  1  0.15152304  0.11264552  0.02715295  1
  Li  Li50  1  0.65152304  0.38735448  0.47284705  1
  Li  Li51  1  0.84847696  0.61264552  0.97284705  1
  Li  Li52  1  0.91281526  0.25000000  0.43415140  1
  Li  Li53  1  0.58718474  0.75000000  0.93415140  1
  Li  Li54  1  0.08718474  0.75000000  0.56584860  1
  Li  Li55  1  0.41281526  0.25000000  0.06584860  1
  Li  Li56  1  0.48749521  0.43776245  0.30781718  1
  Li  Li57  1  0.01250479  0.56223755  0.80781718  1
  Li  Li58  1  0.51250479  0.93776245  0.69218282  1
  Li  Li59  1  0.98749521  0.06223755  0.19218282  1
  Li  Li60  1  0.51250479  0.56223755  0.69218282  1
  Li  Li61  1  0.98749521  0.43776245  0.19218282  1
  Li  Li62  1  0.48749521  0.06223755  0.30781718  1
  Li  Li63  1  0.01250479  0.93776245  0.80781718  1
  Li  Li64  1  0.84991797  0.91798998  0.23743989  1
  Li  Li65  1  0.65008203  0.08201002  0.73743989  1
  Li  Li66  1  0.15008203  0.41798998  0.76256011  1
  Li  Li67  1  0.34991797  0.58201002  0.26256011  1
  Li  Li68  1  0.15008203  0.08201002  0.76256011  1
  Li  Li69  1  0.34991797  0.91798998  0.26256011  1
  Li  Li70  1  0.84991797  0.58201002  0.23743989  1
  Li  Li71  1  0.65008203  0.41798998  0.73743989  1
