# generated using pymatgen
data_LiF
_symmetry_space_group_name_H-M   'P 1'
_cell_length_a   13.12507281
_cell_length_b   13.12507281
_cell_length_c   12.19355736
_cell_angle_alpha   90.00000000
_cell_angle_beta   90.00000000
_cell_angle_gamma   120.00000000
_symmetry_Int_Tables_number   1
_chemical_formula_structural   LiF
_chemical_formula_sum   'Li78 F78'
_cell_volume   1819.13319934
_cell_formula_units_Z   78
loop_
 _symmetry_equiv_pos_site_id
 _symmetry_equiv_pos_as_xyz
  1  'x, y, z'
loop_
 _atom_site_type_symbol
 _atom_site_label
 _atom_site_symmetry_multiplicity
 _atom_site_fract_x
 _atom_site_fract_y
 _atom_site_fract_z
 _atom_site_occupancy
  F  F0  1  0.65366508  0.00000000  0.25000000  1
  F  F1  1  0.00000000  0.65366508  0.25000000  1
  F  F2  1  0.34633492  0.34633492  0.25000000  1
  F  F3  1  0.34633492  -0.00000000  0.75000000  1
  F  F4  1  0.00000000  0.34633492  0.75000000  1
  F  F5  1  0.65366508  0.65366508  0.75000000  1
  F  F6  1  0.32033175  0.33333333  0.58333333  1
  F  F7  1  0.66666667  0.98699842  0.58333333  1
  F  F8  1  0.01300158  0.67966825  0.58333333  1
  F  F9  1  0.01300158  0.33333333  0.08333333  1
  F  F10  1  0.66666667  0.67966825  0.08333333  1
  F  F11  1  0.32033175  0.98699842  0.08333333  1
  F  F12  1  0.98699842  0.66666667  0.91666667  1
  F  F13  1  0.33333333  0.32033175  0.91666667  1
  F  F14  1  0.67966825  0.01300158  0.91666667  1
  F  F15  1  0.67966825  0.66666667  0.41666667  1
  F  F16  1  0.33333333  0.01300158  0.41666667  1
  F  F17  1  0.98699842  0.32033175  0.41666667  1
  F  F18  1  0.74698007  0.04786668  0.37620475  1
  F  F19  1  0.95213332  0.69911339  0.37620475  1
  F  F20  1  0.30088661  0.25301993  0.37620475  1
  F  F21  1  0.04786668  0.74698007  0.12379525  1
  F  F22  1  0.69911339  0.95213332  0.12379525  1
  F  F23  1  0.25301993  0.30088661  0.12379525  1
  F  F24  1  0.25301993  0.95213332  0.62379525  1
  F  F25  1  0.04786668  0.30088661  0.62379525  1
  F  F26  1  0.69911339  0.74698007  0.62379525  1
  F  F27  1  0.95213332  0.25301993  0.87620475  1
  F  F28  1  0.30088661  0.04786668  0.87620475  1
  F  F29  1  0.74698007  0.69911339  0.87620475  1
  F  F30  1  0.41364674  0.38120001  0.70953808  1
  F  F31  1  0.61879999  0.03244673  0.70953808  1
  F  F32  1  0.96755327  0.58635326  0.70953808  1
  F  F33  1  0.71453334  0.08031340  0.45712859  1
  F  F34  1  0.36578006  0.28546666  0.45712859  1
  F  F35  1  0.91968660  0.63421994  0.45712859  1
  F  F36  1  0.91968660  0.28546666  0.95712859  1
  F  F37  1  0.71453334  0.63421994  0.95712859  1
  F  F38  1  0.36578006  0.08031340  0.95712859  1
  F  F39  1  0.61879999  0.58635326  0.20953808  1
  F  F40  1  0.96755327  0.38120001  0.20953808  1
  F  F41  1  0.41364674  0.03244673  0.20953808  1
  F  F42  1  0.08031340  0.71453334  0.04287141  1
  F  F43  1  0.28546666  0.36578006  0.04287141  1
  F  F44  1  0.63421994  0.91968660  0.04287141  1
  F  F45  1  0.38120001  0.41364674  0.79046192  1
  F  F46  1  0.03244673  0.61879999  0.79046192  1
  F  F47  1  0.58635326  0.96755327  0.79046192  1
  F  F48  1  0.58635326  0.61879999  0.29046192  1
  F  F49  1  0.38120001  0.96755327  0.29046192  1
  F  F50  1  0.03244673  0.41364674  0.29046192  1
  F  F51  1  0.28546666  0.91968660  0.54287141  1
  F  F52  1  0.63421994  0.71453334  0.54287141  1
  F  F53  1  0.08031340  0.36578006  0.54287141  1
  F  F54  1  0.38857306  -0.00000000  0.25000000  1
  F  F55  1  0.00000000  0.38857306  0.25000000  1
  F  F56  1  0.61142694  0.61142694  0.25000000  1
  F  F57  1  0.61142694  -0.00000000  0.75000000  1
  F  F58  1  0.00000000  0.61142694  0.75000000  1
  F  F59  1  0.38857306  0.38857306  0.75000000  1
  F  F60  1  0.05523972  0.33333333  0.58333333  1
  F  F61  1  0.66666667  0.72190639  0.58333333  1
  F  F62  1  0.27809361  0.94476028  0.58333333  1
  F  F63  1  0.27809361  0.33333333  0.08333333  1
  F  F64  1  0.66666667  0.94476028  0.08333333  1
  F  F65  1  0.05523972  0.72190639  0.08333333  1
  F  F66  1  0.72190639  0.66666667  0.91666667  1
  F  F67  1  0.33333333  0.05523972  0.91666667  1
  F  F68  1  0.94476028  0.27809361  0.91666667  1
  F  F69  1  0.94476028  0.66666667  0.41666667  1
  F  F70  1  0.33333333  0.27809361  0.41666667  1
  F  F71  1  0.72190639  0.05523972  0.41666667  1
  F  F72  1  0.00000000  0.00000000  0.00000000  1
  F  F73  1  0.00000000  0.00000000  0.50000000  1
  F  F74  1  0.66666667  0.33333333  0.33333333  1
  F  F75  1  0.66666667  0.33333333  0.83333333  1
  F  F76  1  0.33333333  0.66666667  0.66666667  1
  F  F77  1  0.33333333  0.66666667  0.16666667  1
  Li  Li78  1  0.59798242  0.79467401  0.12053800  1
  Li  Li79  1  -0.79467401  -0.19669159  0.12053800  1
  Li  Li80  1  0.19669159  -0.59798242  0.12053800  1
  Li  Li81  1  0.79467401  0.59798242  0.37946200  1
  Li  Li82  1  -0.19669159  -0.79467401  0.37946200  1
  Li  Li83  1  -0.59798242  0.19669159  0.37946200  1
  Li  Li84  1  -0.59798242  -0.79467401  -0.12053800  1
  Li  Li85  1  0.79467401  0.19669159  -0.12053800  1
  Li  Li86  1  -0.19669159  0.59798242  -0.12053800  1
  Li  Li87  1  -0.79467401  -0.59798242  0.62053800  1
  Li  Li88  1  0.19669159  0.79467401  0.62053800  1
  Li  Li89  1  0.59798242  -0.19669159  0.62053800  1
  Li  Li90  1  1.26464909  1.12800734  0.45387133  1
  Li  Li91  1  -0.12800734  0.13664174  0.45387133  1
  Li  Li92  1  0.86335826  -0.26464909  0.45387133  1
  Li  Li93  1  1.46134068  0.93131576  0.71279533  1
  Li  Li94  1  0.46997508  -0.46134068  0.71279533  1
  Li  Li95  1  0.06868424  0.53002492  0.71279533  1
  Li  Li96  1  0.06868424  -0.46134068  0.21279533  1
  Li  Li97  1  1.46134068  0.53002492  0.21279533  1
  Li  Li98  1  0.46997508  0.93131576  0.21279533  1
  Li  Li99  1  -0.12800734  -0.26464909  0.95387133  1
  Li  Li100  1  0.86335826  1.12800734  0.95387133  1
  Li  Li101  1  1.26464909  0.13664174  0.95387133  1
  Li  Li102  1  0.93131576  1.46134068  0.78720467  1
  Li  Li103  1  -0.46134068  0.46997508  0.78720467  1
  Li  Li104  1  0.53002492  0.06868424  0.78720467  1
  Li  Li105  1  1.12800734  1.26464909  1.04612867  1
  Li  Li106  1  0.13664174  -0.12800734  1.04612867  1
  Li  Li107  1  -0.26464909  0.86335826  1.04612867  1
  Li  Li108  1  -0.26464909  -0.12800734  0.54612867  1
  Li  Li109  1  1.12800734  0.86335826  0.54612867  1
  Li  Li110  1  0.13664174  1.26464909  0.54612867  1
  Li  Li111  1  -0.46134068  0.06868424  1.28720467  1
  Li  Li112  1  0.53002492  1.46134068  1.28720467  1
  Li  Li113  1  0.93131576  0.46997508  1.28720467  1
  Li  Li114  1  0.50000000  -0.00000000  0.00000000  1
  Li  Li115  1  0.00000000  0.50000000  0.00000000  1
  Li  Li116  1  0.50000000  0.50000000  0.00000000  1
  Li  Li117  1  0.00000000  0.50000000  0.50000000  1
  Li  Li118  1  0.50000000  -0.00000000  0.50000000  1
  Li  Li119  1  0.50000000  0.50000000  0.50000000  1
  Li  Li120  1  0.16666667  0.33333333  0.33333333  1
  Li  Li121  1  0.66666667  0.83333333  0.33333333  1
  Li  Li122  1  0.16666667  0.83333333  0.33333333  1
  Li  Li123  1  0.66666667  0.83333333  0.83333333  1
  Li  Li124  1  0.16666667  0.33333333  0.83333333  1
  Li  Li125  1  0.16666667  0.83333333  0.83333333  1
  Li  Li126  1  0.83333333  0.66666667  0.66666667  1
  Li  Li127  1  0.33333333  0.16666667  0.66666667  1
  Li  Li128  1  0.83333333  0.16666667  0.66666667  1
  Li  Li129  1  0.33333333  0.16666667  0.16666667  1
  Li  Li130  1  0.83333333  0.66666667  0.16666667  1
  Li  Li131  1  0.83333333  0.16666667  0.16666667  1
  Li  Li132  1  0.27844344  -0.00000000  0.25000000  1
  Li  Li133  1  0.00000000  0.27844344  0.25000000  1
  Li  Li134  1  0.72155656  0.72155656  0.25000000  1
  Li  Li135  1  0.72155656  0.00000000  0.75000000  1
  Li  Li136  1  0.00000000  0.72155656  0.75000000  1
  Li  Li137  1  0.27844344  0.27844344  0.75000000  1
  Li  Li138  1  0.94511011  0.33333333  0.58333333  1
  Li  Li139  1  0.66666667  0.61177677  0.58333333  1
  Li  Li140  1  0.38822323  0.05488989  0.58333333  1
  Li  Li141  1  0.38822323  0.33333333  0.08333333  1
  Li  Li142  1  0.66666667  0.05488989  0.08333333  1
  Li  Li143  1  0.94511011  0.61177677  0.08333333  1
  Li  Li144  1  0.61177677  0.66666667  0.91666667  1
  Li  Li145  1  0.33333333  0.94511011  0.91666667  1
  Li  Li146  1  0.05488989  0.38822323  0.91666667  1
  Li  Li147  1  0.05488989  0.66666667  0.41666667  1
  Li  Li148  1  0.33333333  0.38822323  0.41666667  1
  Li  Li149  1  0.61177677  0.94511011  0.41666667  1
  Li  Li150  1  0.00000000  0.00000000  0.25000000  1
  Li  Li151  1  0.00000000  0.00000000  0.75000000  1
  Li  Li152  1  0.66666667  0.33333333  0.58333333  1
  Li  Li153  1  0.66666667  0.33333333  0.08333333  1
  Li  Li154  1  0.33333333  0.66666667  0.91666667  1
  Li  Li155  1  0.33333333  0.66666667  0.41666667  1
