# generated using pymatgen
data_LiF
_symmetry_space_group_name_H-M   'P 1'
_cell_length_a   9.95054009
_cell_length_b   6.09507357
_cell_length_c   7.36192794
_cell_angle_alpha   90.00000000
_cell_angle_beta   90.00000000
_cell_angle_gamma   90.00000000
_symmetry_Int_Tables_number   1
_chemical_formula_structural   LiF
_chemical_formula_sum   'Li24 F24'
_cell_volume   446.49558458
_cell_formula_units_Z   24
loop_
 _symmetry_equiv_pos_site_id
 _symmetry_equiv_pos_as_xyz
  1  'x, y, z'
loop_
 _atom_site_type_symbol
 _atom_site_label
 _atom_site_symmetry_multiplicity
 _atom_site_fract_x
 _atom_site_fract_y
 _atom_site_fract_z
 _atom_site_occupancy
  F  F0  1  0.00000000  0.50000000  0.00000000  1
  F  F1  1  0.50000000  0.00000000  0.00000000  1
  F  F2  1  0.86955732  0.27934690  -0.00000000  1
  F  F3  1  0.13044268  0.72065310  0.00000000  1
  F  F4  1  0.63044268  0.77934690  0.00000000  1
  F  F5  1  0.36955732  0.22065310  0.00000000  1
  F  F6  1  0.13744387  0.71962351  0.75973821  1
  F  F7  1  -0.13744387  -0.71962351  0.75973821  1
  F  F8  1  0.36255613  1.21962351  -0.75973821  1
  F  F9  1  0.63744387  -0.21962351  -0.75973821  1
  F  F10  1  -0.13744387  -0.71962351  -0.75973821  1
  F  F11  1  0.13744387  0.71962351  -0.75973821  1
  F  F12  1  0.63744387  -0.21962351  0.75973821  1
  F  F13  1  0.36255613  1.21962351  0.75973821  1
  F  F14  1  0.00000000  0.00000000  0.50000000  1
  F  F15  1  0.50000000  0.50000000  0.50000000  1
  F  F16  1  0.00000000  0.50000000  0.50000000  1
  F  F17  1  0.50000000  0.00000000  0.50000000  1
  F  F18  1  0.00000000  0.50000000  0.29699757  1
  F  F19  1  0.50000000  0.00000000  0.70300243  1
  F  F20  1  0.00000000  0.50000000  0.70300243  1
  F  F21  1  0.50000000  0.00000000  0.29699757  1
  F  F22  1  0.00000000  0.00000000  0.00000000  1
  F  F23  1  0.50000000  0.50000000  0.00000000  1
  Li  Li24  1  0.68248962  0.68556993  0.50000000  1
  Li  Li25  1  0.31751038  0.31443007  0.50000000  1
  Li  Li26  1  0.81751038  0.18556993  0.50000000  1
  Li  Li27  1  0.18248962  0.81443007  0.50000000  1
  Li  Li28  1  0.91608189  0.76014051  0.50000000  1
  Li  Li29  1  0.08391811  0.23985949  0.50000000  1
  Li  Li30  1  0.58391811  0.26014051  0.50000000  1
  Li  Li31  1  0.41608189  0.73985949  0.50000000  1
  Li  Li32  1  0.50355954  0.69871412  0.76160587  1
  Li  Li33  1  0.49644046  0.30128588  0.76160587  1
  Li  Li34  1  0.99644046  0.19871412  0.23839413  1
  Li  Li35  1  0.00355954  0.80128588  0.23839413  1
  Li  Li36  1  0.49644046  0.30128588  0.23839413  1
  Li  Li37  1  0.50355954  0.69871412  0.23839413  1
  Li  Li38  1  0.00355954  0.80128588  0.76160587  1
  Li  Li39  1  0.99644046  0.19871412  0.76160587  1
  Li  Li40  1  0.40713349  0.56487994  0.35020996  1
  Li  Li41  1  0.59286651  0.43512006  0.35020996  1
  Li  Li42  1  0.09286651  0.06487994  0.64979004  1
  Li  Li43  1  0.90713349  0.93512006  0.64979004  1
  Li  Li44  1  0.59286651  0.43512006  0.64979004  1
  Li  Li45  1  0.40713349  0.56487994  0.64979004  1
  Li  Li46  1  0.90713349  0.93512006  0.35020996  1
  Li  Li47  1  0.09286651  0.06487994  0.35020996  1
