# generated using pymatgen
data_LiCaF3
_symmetry_space_group_name_H-M   'P 1'
_cell_length_a   10.81577621
_cell_length_b   10.81577621
_cell_length_c   14.22519597
_cell_angle_alpha   90.00000000
_cell_angle_beta   90.00000000
_cell_angle_gamma   120.00000000
_symmetry_Int_Tables_number   1
_chemical_formula_structural   LiCaF3
_chemical_formula_sum   'Li18 Ca18 F54'
_cell_volume   1441.13370360
_cell_formula_units_Z   18
loop_
 _symmetry_equiv_pos_site_id
 _symmetry_equiv_pos_as_xyz
  1  'x, y, z'
loop_
 _atom_site_type_symbol
 _atom_site_label
 _atom_site_symmetry_multiplicity
 _atom_site_fract_x
 _atom_site_fract_y
 _atom_site_fract_z
 _atom_site_occupancy
  Ca  Ca0  1  0.66666667  0.33333333  0.00000000  1
  Ca  Ca1  1  0.00000000  0.00000000  0.00000000  1
  Ca  Ca2  1  0.33333333  0.66666667  0.00000000  1
  Ca  Ca3  1  0.54593008  0.58933603  0.58946169  1
  Ca  Ca4  1  -0.58933603  -0.04340595  0.58946169  1
  Ca  Ca5  1  0.04340595  -0.54593008  0.58946169  1
  Ca  Ca6  1  -0.58933603  -0.54593008  -0.58946169  1
  Ca  Ca7  1  0.04340595  0.58933603  -0.58946169  1
  Ca  Ca8  1  0.54593008  -0.04340595  -0.58946169  1
  Ca  Ca9  1  0.00000000  0.00000000  0.50000000  1
  Ca  Ca10  1  0.66666667  0.33333333  0.50000000  1
  Ca  Ca11  1  0.33333333  0.66666667  0.50000000  1
  Ca  Ca12  1  0.69349224  0.47743382  0.35325039  1
  Ca  Ca13  1  0.52256618  0.21605841  0.35325039  1
  Ca  Ca14  1  0.78394159  0.30650776  0.35325039  1
  Ca  Ca15  1  0.52256618  0.30650776  0.64674961  1
  Ca  Ca16  1  0.78394159  0.47743382  0.64674961  1
  Ca  Ca17  1  0.69349224  0.21605841  0.64674961  1
  F  F18  1  0.76332218  0.67473409  0.79160416  1
  F  F19  1  0.32526591  0.08858808  0.79160416  1
  F  F20  1  0.91141192  0.23667782  0.79160416  1
  F  F21  1  0.32526591  0.23667782  0.20839584  1
  F  F22  1  0.91141192  0.67473409  0.20839584  1
  F  F23  1  0.76332218  0.08858808  0.20839584  1
  F  F24  1  0.65625339  0.39989440  0.43349428  1
  F  F25  1  0.60010560  0.25635899  0.43349428  1
  F  F26  1  0.74364101  0.34374661  0.43349428  1
  F  F27  1  0.60010560  0.34374661  0.56650572  1
  F  F28  1  0.74364101  0.39989440  0.56650572  1
  F  F29  1  0.65625339  0.25635899  0.56650572  1
  F  F30  1  0.41057897  0.57114363  0.07895595  1
  F  F31  1  0.42885637  0.83943534  0.07895595  1
  F  F32  1  0.16056466  0.58942103  0.07895595  1
  F  F33  1  0.42885637  0.58942103  0.92104405  1
  F  F34  1  0.16056466  0.57114363  0.92104405  1
  F  F35  1  0.41057897  0.83943534  0.92104405  1
  F  F36  1  0.89714701  0.23004918  0.53244748  1
  F  F37  1  0.76995082  0.66709783  0.53244748  1
  F  F38  1  0.33290217  0.10285299  0.53244748  1
  F  F39  1  0.76995082  0.10285299  0.46755252  1
  F  F40  1  0.33290217  0.23004918  0.46755252  1
  F  F41  1  0.89714701  0.66709783  0.46755252  1
  F  F42  1  0.31883744  0.27845919  0.34209863  1
  F  F43  1  0.72154081  0.04037825  0.34209863  1
  F  F44  1  0.95962175  0.68116256  0.34209863  1
  F  F45  1  0.72154081  0.68116256  0.65790137  1
  F  F46  1  0.95962175  0.27845919  0.65790137  1
  F  F47  1  0.31883744  0.04037825  0.65790137  1
  F  F48  1  0.91995721  0.73078506  0.57180665  1
  F  F49  1  0.26921494  0.18917215  0.57180665  1
  F  F50  1  0.81082785  0.08004279  0.57180665  1
  F  F51  1  0.26921494  0.08004279  0.42819335  1
  F  F52  1  0.81082785  0.73078506  0.42819335  1
  F  F53  1  0.91995721  0.18917215  0.42819335  1
  F  F54  1  0.46385978  0.64000866  0.78262321  1
  F  F55  1  0.35999134  0.82385112  0.78262321  1
  F  F56  1  0.17614888  0.53614022  0.78262321  1
  F  F57  1  0.35999134  0.53614022  0.21737679  1
  F  F58  1  0.17614888  0.64000866  0.21737679  1
  F  F59  1  0.46385978  0.82385112  0.21737679  1
  F  F60  1  0.87889411  0.36185848  0.43890839  1
  F  F61  1  0.63814152  0.51703562  0.43890839  1
  F  F62  1  0.48296438  0.12110589  0.43890839  1
  F  F63  1  0.63814152  0.12110589  0.56109161  1
  F  F64  1  0.48296438  0.36185848  0.56109161  1
  F  F65  1  0.87889411  0.51703562  0.56109161  1
  F  F66  1  0.06173811  0.84550963  0.24818726  1
  F  F67  1  0.15449037  0.21622848  0.24818726  1
  F  F68  1  0.78377152  0.93826189  0.24818726  1
  F  F69  1  0.15449037  0.93826189  0.75181274  1
  F  F70  1  0.78377152  0.84550963  0.75181274  1
  F  F71  1  0.06173811  0.21622848  0.75181274  1
  Li  Li72  1  0.99146536  0.27617237  0.25268123  1
  Li  Li73  1  0.72382763  0.71529299  0.25268123  1
  Li  Li74  1  0.28470701  0.00853464  0.25268123  1
  Li  Li75  1  0.72382763  0.00853464  0.74731877  1
  Li  Li76  1  0.28470701  0.27617237  0.74731877  1
  Li  Li77  1  0.99146536  0.71529299  0.74731877  1
  Li  Li78  1  0.29407836  0.39299475  0.06438364  1
  Li  Li79  1  0.60700525  0.90108361  0.06438364  1
  Li  Li80  1  0.09891639  0.70592164  0.06438364  1
  Li  Li81  1  0.60700525  0.70592164  0.93561636  1
  Li  Li82  1  0.09891639  0.39299475  0.93561636  1
  Li  Li83  1  0.29407836  0.90108361  0.93561636  1
  Li  Li84  1  0.14601838  0.07675955  0.09432449  1
  Li  Li85  1  0.92324045  0.06925883  0.09432449  1
  Li  Li86  1  0.93074117  0.85398162  0.09432449  1
  Li  Li87  1  0.92324045  0.85398162  0.90567551  1
  Li  Li88  1  0.93074117  0.07675955  0.90567551  1
  Li  Li89  1  0.14601838  0.06925883  0.90567551  1
