# generated using pymatgen
data_LiF
_symmetry_space_group_name_H-M   'P 1'
_cell_length_a   8.20639850
_cell_length_b   5.66078727
_cell_length_c   5.10461564
_cell_angle_alpha   90.00000000
_cell_angle_beta   90.00000000
_cell_angle_gamma   90.00000000
_symmetry_Int_Tables_number   1
_chemical_formula_structural   LiF
_chemical_formula_sum   'Li8 F8'
_cell_volume   237.13326644
_cell_formula_units_Z   8
loop_
 _symmetry_equiv_pos_site_id
 _symmetry_equiv_pos_as_xyz
  1  'x, y, z'
loop_
 _atom_site_type_symbol
 _atom_site_label
 _atom_site_symmetry_multiplicity
 _atom_site_fract_x
 _atom_site_fract_y
 _atom_site_fract_z
 _atom_site_occupancy
  F  F0  1  0.74960455  0.65453560  0.92229071  1
  F  F1  1  -0.74960455  -0.65453560  0.92229071  1
  F  F2  1  -0.24960455  1.15453560  -0.92229071  1
  F  F3  1  1.24960455  -0.15453560  -0.92229071  1
  F  F4  1  -0.74960455  -0.65453560  -0.92229071  1
  F  F5  1  0.74960455  0.65453560  -0.92229071  1
  F  F6  1  1.24960455  -0.15453560  0.92229071  1
  F  F7  1  -0.24960455  1.15453560  0.92229071  1
  Li  Li8  1  0.16977057  0.07648562  0.16461834  1
  Li  Li9  1  0.83022943  0.92351438  0.16461834  1
  Li  Li10  1  0.33022943  0.57648562  0.83538166  1
  Li  Li11  1  0.66977057  0.42351438  0.83538166  1
  Li  Li12  1  0.83022943  0.92351438  0.83538166  1
  Li  Li13  1  0.16977057  0.07648562  0.83538166  1
  Li  Li14  1  0.66977057  0.42351438  0.16461834  1
  Li  Li15  1  0.33022943  0.57648562  0.16461834  1
