# generated using pymatgen
data_Li2Y2As4P2Se
_symmetry_space_group_name_H-M   'P 1'
_cell_length_a   4.56334515
_cell_length_b   4.81360319
_cell_length_c   6.64740438
_cell_angle_alpha   94.97578233
_cell_angle_beta   100.28974037
_cell_angle_gamma   109.06066732
_symmetry_Int_Tables_number   1
_chemical_formula_structural   Li2Y2As4P2Se
_chemical_formula_sum   'Li2 Y2 As4 P2 Se1'
_cell_volume   134.13012226
_cell_formula_units_Z   1
loop_
 _symmetry_equiv_pos_site_id
 _symmetry_equiv_pos_as_xyz
  1  'x, y, z'
loop_
 _atom_site_type_symbol
 _atom_site_label
 _atom_site_symmetry_multiplicity
 _atom_site_fract_x
 _atom_site_fract_y
 _atom_site_fract_z
 _atom_site_occupancy
  Se  Se0  1  0.12500000  0.00000000  0.25000000  1
  Y  Y1  1  0.00000000  0.00000000  0.00000000  1
  Y  Y2  1  0.37500000  0.00000000  0.25000000  1
  P  P3  1  0.25000000  0.25000000  0.25000000  1
  P  P4  1  0.00000000  0.25000000  0.12500000  1
  As  As5  1  0.63271753  0.07724413  0.95989729  1
  As  As6  1  0.59395292  0.82739739  0.76695723  1
  As  As7  1  0.98623989  0.02780565  0.39030186  1
  As  As8  1  0.41718777  0.93216393  0.03694698  1
  Li  Li9  1  0.38928955  0.07312468  0.41080157  1
  Li  Li10  1  0.18686061  0.55305672  0.40623196  1
