# generated using pymatgen
data_Li2Y2MoP3
_symmetry_space_group_name_H-M   'P 1'
_cell_length_a   4.73086352
_cell_length_b   4.93329419
_cell_length_c   6.95314703
_cell_angle_alpha   95.23036108
_cell_angle_beta   101.39063907
_cell_angle_gamma   111.00828170
_symmetry_Int_Tables_number   1
_chemical_formula_structural   Li2Y2MoP3
_chemical_formula_sum   'Li2 Y2 Mo1 P3'
_cell_volume   146.16271064
_cell_formula_units_Z   1
loop_
 _symmetry_equiv_pos_site_id
 _symmetry_equiv_pos_as_xyz
  1  'x, y, z'
loop_
 _atom_site_type_symbol
 _atom_site_label
 _atom_site_symmetry_multiplicity
 _atom_site_fract_x
 _atom_site_fract_y
 _atom_site_fract_z
 _atom_site_occupancy
  P  P0  1  0.12500000  0.12500000  0.12500000  1
  P  P1  1  0.50000000  0.50000000  0.50000000  1
  P  P2  1  0.25000000  0.25000000  0.25000000  1
  Mo  Mo3  1  0.75000000  0.75000000  0.75000000  1
  Li  Li4  1  0.34758627  0.27805782  0.69797276  1
  Li  Li5  1  0.53674769  0.04773898  0.74927178  1
  Y  Y6  1  0.74134348  0.25957306  0.98965503  1
  Y  Y7  1  0.11993694  0.75589553  0.03995388  1
