# generated using pymatgen
data_LiF
_symmetry_space_group_name_H-M   'P 1'
_cell_length_a   7.07291419
_cell_length_b   7.07291419
_cell_length_c   23.05522645
_cell_angle_alpha   90.00000000
_cell_angle_beta   90.00000000
_cell_angle_gamma   120.00000000
_symmetry_Int_Tables_number   1
_chemical_formula_structural   LiF
_chemical_formula_sum   'Li30 F30'
_cell_volume   998.84201642
_cell_formula_units_Z   30
loop_
 _symmetry_equiv_pos_site_id
 _symmetry_equiv_pos_as_xyz
  1  'x, y, z'
loop_
 _atom_site_type_symbol
 _atom_site_label
 _atom_site_symmetry_multiplicity
 _atom_site_fract_x
 _atom_site_fract_y
 _atom_site_fract_z
 _atom_site_occupancy
  F  F0  1  0.50000000  0.00000000  0.00000000  1
  F  F1  1  0.00000000  0.50000000  0.00000000  1
  F  F2  1  0.50000000  0.50000000  0.00000000  1
  F  F3  1  0.00000000  0.50000000  0.50000000  1
  F  F4  1  0.50000000  0.00000000  0.50000000  1
  F  F5  1  0.50000000  0.50000000  0.50000000  1
  F  F6  1  1.16666667  0.33333333  0.33333333  1
  F  F7  1  0.66666667  0.83333333  0.33333333  1
  F  F8  1  1.16666667  0.83333333  0.33333333  1
  F  F9  1  0.66666667  0.83333333  0.83333333  1
  F  F10  1  1.16666667  0.33333333  0.83333333  1
  F  F11  1  1.16666667  0.83333333  0.83333333  1
  F  F12  1  0.83333333  0.66666667  0.66666667  1
  F  F13  1  0.33333333  1.16666667  0.66666667  1
  F  F14  1  0.83333333  1.16666667  0.66666667  1
  F  F15  1  0.33333333  1.16666667  1.16666667  1
  F  F16  1  0.83333333  0.66666667  1.16666667  1
  F  F17  1  0.83333333  1.16666667  1.16666667  1
  F  F18  1  0.00000000  0.00000000  0.81622060  1
  F  F19  1  0.00000000  0.00000000  0.68377940  1
  F  F20  1  0.00000000  0.00000000  0.18377940  1
  F  F21  1  0.00000000  0.00000000  0.31622060  1
  F  F22  1  0.66666667  0.33333333  0.14955394  1
  F  F23  1  0.66666667  0.33333333  0.01711273  1
  F  F24  1  0.66666667  0.33333333  0.51711273  1
  F  F25  1  0.66666667  0.33333333  0.64955394  1
  F  F26  1  0.33333333  0.66666667  0.48288727  1
  F  F27  1  0.33333333  0.66666667  0.35044606  1
  F  F28  1  0.33333333  0.66666667  0.85044606  1
  F  F29  1  0.33333333  0.66666667  0.98288727  1
  Li  Li30  1  0.00000000  0.00000000  0.25000000  1
  Li  Li31  1  0.00000000  0.00000000  0.75000000  1
  Li  Li32  1  0.66666667  0.33333333  0.58333333  1
  Li  Li33  1  0.66666667  0.33333333  0.08333333  1
  Li  Li34  1  0.33333333  0.66666667  0.91666667  1
  Li  Li35  1  0.33333333  0.66666667  0.41666667  1
  Li  Li36  1  0.00000000  0.00000000  0.00000000  1
  Li  Li37  1  0.00000000  0.00000000  0.50000000  1
  Li  Li38  1  0.66666667  0.33333333  0.33333333  1
  Li  Li39  1  0.66666667  0.33333333  0.83333333  1
  Li  Li40  1  0.33333333  0.66666667  0.66666667  1
  Li  Li41  1  0.33333333  0.66666667  0.16666667  1
  Li  Li42  1  0.36513767  0.00000000  0.25000000  1
  Li  Li43  1  0.00000000  0.36513767  0.25000000  1
  Li  Li44  1  0.63486233  0.63486233  0.25000000  1
  Li  Li45  1  0.63486233  0.00000000  0.75000000  1
  Li  Li46  1  0.00000000  0.63486233  0.75000000  1
  Li  Li47  1  0.36513767  0.36513767  0.75000000  1
  Li  Li48  1  0.03180434  0.33333333  0.58333333  1
  Li  Li49  1  0.66666667  0.69847101  0.58333333  1
  Li  Li50  1  0.30152899  0.96819566  0.58333333  1
  Li  Li51  1  0.30152899  0.33333333  0.08333333  1
  Li  Li52  1  0.66666667  0.96819566  0.08333333  1
  Li  Li53  1  0.03180434  0.69847101  0.08333333  1
  Li  Li54  1  0.69847101  0.66666667  0.91666667  1
  Li  Li55  1  0.33333333  0.03180434  0.91666667  1
  Li  Li56  1  0.96819566  0.30152899  0.91666667  1
  Li  Li57  1  0.96819566  0.66666667  0.41666667  1
  Li  Li58  1  0.33333333  0.30152899  0.41666667  1
  Li  Li59  1  0.69847101  0.03180434  0.41666667  1
