# generated using pymatgen
data_LiF
_symmetry_space_group_name_H-M   'P 1'
_cell_length_a   11.99380559
_cell_length_b   11.99380559
_cell_length_c   7.21650472
_cell_angle_alpha   90.00000000
_cell_angle_beta   90.00000000
_cell_angle_gamma   90.00000000
_symmetry_Int_Tables_number   1
_chemical_formula_structural   LiF
_chemical_formula_sum   'Li49 F49'
_cell_volume   1038.10410833
_cell_formula_units_Z   49
loop_
 _symmetry_equiv_pos_site_id
 _symmetry_equiv_pos_as_xyz
  1  'x, y, z'
loop_
 _atom_site_type_symbol
 _atom_site_label
 _atom_site_symmetry_multiplicity
 _atom_site_fract_x
 _atom_site_fract_y
 _atom_site_fract_z
 _atom_site_occupancy
  F  F0  1  0.00000000  0.50000000  0.50000000  1
  F  F1  1  0.50000000  0.00000000  0.50000000  1
  F  F2  1  0.04413238  0.00000000  0.50000000  1
  F  F3  1  0.95586762  -0.00000000  0.50000000  1
  F  F4  1  0.00000000  0.04413238  0.50000000  1
  F  F5  1  0.00000000  0.95586762  0.50000000  1
  F  F6  1  0.10104608  0.00000000  0.86136769  1
  F  F7  1  0.89895392  0.00000000  0.86136769  1
  F  F8  1  0.00000000  0.10104608  0.86136769  1
  F  F9  1  0.00000000  0.89895392  0.86136769  1
  F  F10  1  0.89895392  0.00000000  0.13863231  1
  F  F11  1  0.10104608  0.00000000  0.13863231  1
  F  F12  1  0.00000000  0.10104608  0.13863231  1
  F  F13  1  0.00000000  0.89895392  0.13863231  1
  F  F14  1  0.50000000  0.50000000  0.26101162  1
  F  F15  1  0.50000000  0.50000000  0.73898838  1
  F  F16  1  0.08541399  0.04488583  0.21905934  1
  F  F17  1  0.91458601  0.95511417  0.21905934  1
  F  F18  1  0.95511417  0.08541399  0.21905934  1
  F  F19  1  0.04488583  0.91458601  0.21905934  1
  F  F20  1  0.91458601  0.04488583  0.78094066  1
  F  F21  1  0.08541399  0.95511417  0.78094066  1
  F  F22  1  0.04488583  0.08541399  0.78094066  1
  F  F23  1  0.95511417  0.91458601  0.78094066  1
  F  F24  1  0.91458601  0.95511417  0.78094066  1
  F  F25  1  0.08541399  0.04488583  0.78094066  1
  F  F26  1  0.04488583  0.91458601  0.78094066  1
  F  F27  1  0.95511417  0.08541399  0.78094066  1
  F  F28  1  0.08541399  0.95511417  0.21905934  1
  F  F29  1  0.91458601  0.04488583  0.21905934  1
  F  F30  1  0.95511417  0.91458601  0.21905934  1
  F  F31  1  0.04488583  0.08541399  0.21905934  1
  F  F32  1  0.07579526  0.69203827  0.83812582  1
  F  F33  1  0.92420474  0.30796173  0.83812582  1
  F  F34  1  0.30796173  0.07579526  0.83812582  1
  F  F35  1  0.69203827  0.92420474  0.83812582  1
  F  F36  1  0.92420474  0.69203827  0.16187418  1
  F  F37  1  0.07579526  0.30796173  0.16187418  1
  F  F38  1  0.69203827  0.07579526  0.16187418  1
  F  F39  1  0.30796173  0.92420474  0.16187418  1
  F  F40  1  0.92420474  0.30796173  0.16187418  1
  F  F41  1  0.07579526  0.69203827  0.16187418  1
  F  F42  1  0.69203827  0.92420474  0.16187418  1
  F  F43  1  0.30796173  0.07579526  0.16187418  1
  F  F44  1  0.07579526  0.30796173  0.83812582  1
  F  F45  1  0.92420474  0.69203827  0.83812582  1
  F  F46  1  0.30796173  0.92420474  0.83812582  1
  F  F47  1  0.69203827  0.07579526  0.83812582  1
  F  F48  1  0.50000000  0.50000000  0.50000000  1
  Li  Li49  1  0.73745240  0.73745240  0.16496789  1
  Li  Li50  1  0.26254760  0.26254760  0.16496789  1
  Li  Li51  1  0.26254760  0.73745240  0.16496789  1
  Li  Li52  1  0.73745240  0.26254760  0.16496789  1
  Li  Li53  1  0.26254760  0.73745240  0.83503211  1
  Li  Li54  1  0.73745240  0.26254760  0.83503211  1
  Li  Li55  1  0.73745240  0.73745240  0.83503211  1
  Li  Li56  1  0.26254760  0.26254760  0.83503211  1
  Li  Li57  1  0.00000000  0.00000000  0.64766450  1
  Li  Li58  1  0.00000000  0.00000000  0.35233550  1
  Li  Li59  1  0.65348660  0.00000000  0.50000000  1
  Li  Li60  1  0.34651340  0.00000000  0.50000000  1
  Li  Li61  1  0.00000000  0.65348660  0.50000000  1
  Li  Li62  1  0.00000000  0.34651340  0.50000000  1
  Li  Li63  1  0.84802049  0.23590301  0.23184562  1
  Li  Li64  1  -0.84802049  -0.23590301  0.23184562  1
  Li  Li65  1  -0.23590301  0.84802049  0.23184562  1
  Li  Li66  1  0.23590301  -0.84802049  0.23184562  1
  Li  Li67  1  -0.84802049  0.23590301  -0.23184562  1
  Li  Li68  1  0.84802049  -0.23590301  -0.23184562  1
  Li  Li69  1  0.23590301  0.84802049  -0.23184562  1
  Li  Li70  1  -0.23590301  -0.84802049  -0.23184562  1
  Li  Li71  1  -0.84802049  -0.23590301  -0.23184562  1
  Li  Li72  1  0.84802049  0.23590301  -0.23184562  1
  Li  Li73  1  0.23590301  -0.84802049  -0.23184562  1
  Li  Li74  1  -0.23590301  0.84802049  -0.23184562  1
  Li  Li75  1  0.84802049  -0.23590301  0.23184562  1
  Li  Li76  1  -0.84802049  0.23590301  0.23184562  1
  Li  Li77  1  -0.23590301  -0.84802049  0.23184562  1
  Li  Li78  1  0.23590301  0.84802049  0.23184562  1
  Li  Li79  1  0.43551760  0.20098542  0.50000000  1
  Li  Li80  1  0.56448240  0.79901458  0.50000000  1
  Li  Li81  1  0.79901458  0.43551760  0.50000000  1
  Li  Li82  1  0.20098542  0.56448240  0.50000000  1
  Li  Li83  1  0.56448240  0.20098542  0.50000000  1
  Li  Li84  1  0.43551760  0.79901458  0.50000000  1
  Li  Li85  1  0.20098542  0.43551760  0.50000000  1
  Li  Li86  1  0.79901458  0.56448240  0.50000000  1
  Li  Li87  1  0.10115502  0.50000000  0.36265320  1
  Li  Li88  1  0.89884498  0.50000000  0.36265320  1
  Li  Li89  1  0.50000000  0.10115502  0.36265320  1
  Li  Li90  1  0.50000000  0.89884498  0.36265320  1
  Li  Li91  1  0.89884498  0.50000000  0.63734680  1
  Li  Li92  1  0.10115502  0.50000000  0.63734680  1
  Li  Li93  1  0.50000000  0.10115502  0.63734680  1
  Li  Li94  1  0.50000000  0.89884498  0.63734680  1
  Li  Li95  1  0.00000000  0.50000000  -0.00000000  1
  Li  Li96  1  0.50000000  0.00000000  -0.00000000  1
  Li  Li97  1  0.00000000  0.00000000  0.00000000  1
