# generated using pymatgen
data_Li2Si4Te3F12
_symmetry_space_group_name_H-M   'P 1'
_cell_length_a   8.81606148
_cell_length_b   8.81606148
_cell_length_c   10.72278226
_cell_angle_alpha   90.00000000
_cell_angle_beta   90.00000000
_cell_angle_gamma   90.00000000
_symmetry_Int_Tables_number   1
_chemical_formula_structural   Li2Si4Te3F12
_chemical_formula_sum   'Li8 Si16 Te12 F48'
_cell_volume   833.40616202
_cell_formula_units_Z   4
loop_
 _symmetry_equiv_pos_site_id
 _symmetry_equiv_pos_as_xyz
  1  'x, y, z'
loop_
 _atom_site_type_symbol
 _atom_site_label
 _atom_site_symmetry_multiplicity
 _atom_site_fract_x
 _atom_site_fract_y
 _atom_site_fract_z
 _atom_site_occupancy
  F  F0  1  0.29232961  0.09998229  0.65939644  1
  F  F1  1  0.20767039  -0.09998229  1.15939644  1
  F  F2  1  0.15001771  1.04232961  0.90939644  1
  F  F3  1  0.34998229  -0.04232961  1.40939644  1
  F  F4  1  0.20767039  0.09998229  -0.15939644  1
  F  F5  1  0.29232961  -0.09998229  -0.65939644  1
  F  F6  1  0.34998229  1.04232961  -0.40939644  1
  F  F7  1  0.15001771  -0.04232961  0.09060356  1
  F  F8  1  -0.29232961  -0.09998229  -0.65939644  1
  F  F9  1  0.79232961  0.09998229  -0.15939644  1
  F  F10  1  0.84998229  -0.04232961  0.09060356  1
  F  F11  1  0.65001771  1.04232961  -0.40939644  1
  F  F12  1  0.79232961  -0.09998229  1.15939644  1
  F  F13  1  -0.29232961  0.09998229  0.65939644  1
  F  F14  1  0.65001771  -0.04232961  1.40939644  1
  F  F15  1  0.84998229  1.04232961  0.90939644  1
  F  F16  1  0.79232961  0.59998229  1.15939644  1
  F  F17  1  0.70767039  0.40001771  1.65939644  1
  F  F18  1  0.65001771  1.54232961  1.40939644  1
  F  F19  1  0.84998229  0.45767039  1.90939644  1
  F  F20  1  0.70767039  0.59998229  0.34060356  1
  F  F21  1  0.79232961  0.40001771  -0.15939644  1
  F  F22  1  0.84998229  1.54232961  0.09060356  1
  F  F23  1  0.65001771  0.45767039  0.59060356  1
  F  F24  1  0.20767039  0.40001771  -0.15939644  1
  F  F25  1  1.29232961  0.59998229  0.34060356  1
  F  F26  1  1.34998229  0.45767039  0.59060356  1
  F  F27  1  1.15001771  1.54232961  0.09060356  1
  F  F28  1  1.29232961  0.40001771  1.65939644  1
  F  F29  1  0.20767039  0.59998229  1.15939644  1
  F  F30  1  1.15001771  0.45767039  1.90939644  1
  F  F31  1  1.34998229  1.54232961  1.40939644  1
  F  F32  1  0.00000000  0.41078358  0.09461893  1
  F  F33  1  0.50000000  0.58921642  0.59461893  1
  F  F34  1  0.83921642  0.75000000  0.34461893  1
  F  F35  1  0.66078358  0.25000000  0.84461893  1
  F  F36  1  0.50000000  0.41078358  0.40538107  1
  F  F37  1  0.00000000  0.58921642  0.90538107  1
  F  F38  1  0.66078358  0.75000000  0.15538107  1
  F  F39  1  0.83921642  0.25000000  0.65538107  1
  F  F40  1  0.50000000  0.91078358  0.59461893  1
  F  F41  1  0.00000000  0.08921642  0.09461893  1
  F  F42  1  0.33921642  0.25000000  0.84461893  1
  F  F43  1  0.16078358  0.75000000  0.34461893  1
  F  F44  1  0.00000000  0.91078358  0.90538107  1
  F  F45  1  0.50000000  0.08921642  0.40538107  1
  F  F46  1  0.16078358  0.25000000  0.65538107  1
  F  F47  1  0.33921642  0.75000000  0.15538107  1
  Li  Li48  1  0.00000000  0.00000000  0.50000000  1
  Li  Li49  1  0.50000000  0.00000000  0.00000000  1
  Li  Li50  1  0.25000000  0.75000000  0.75000000  1
  Li  Li51  1  0.25000000  0.25000000  0.25000000  1
  Li  Li52  1  0.50000000  0.50000000  0.00000000  1
  Li  Li53  1  0.00000000  0.50000000  0.50000000  1
  Li  Li54  1  0.75000000  0.25000000  0.25000000  1
  Li  Li55  1  0.75000000  0.75000000  0.75000000  1
  Si  Si56  1  0.70926999  0.00000000  0.00000000  1
  Si  Si57  1  0.79073001  0.00000000  0.50000000  1
  Si  Si58  1  0.25000000  0.45926999  0.25000000  1
  Si  Si59  1  0.25000000  0.54073001  0.75000000  1
  Si  Si60  1  0.29073001  0.00000000  0.00000000  1
  Si  Si61  1  0.20926999  0.00000000  0.50000000  1
  Si  Si62  1  0.75000000  0.54073001  0.75000000  1
  Si  Si63  1  0.75000000  0.45926999  0.25000000  1
  Si  Si64  1  0.20926999  0.50000000  0.50000000  1
  Si  Si65  1  0.29073001  0.50000000  0.00000000  1
  Si  Si66  1  0.75000000  0.95926999  0.75000000  1
  Si  Si67  1  0.75000000  0.04073001  0.25000000  1
  Si  Si68  1  0.79073001  0.50000000  0.50000000  1
  Si  Si69  1  0.70926999  0.50000000  0.00000000  1
  Si  Si70  1  0.25000000  0.04073001  0.25000000  1
  Si  Si71  1  0.25000000  0.95926999  0.75000000  1
  Te  Te72  1  0.00000000  0.25000000  0.79284863  1
  Te  Te73  1  0.00000000  0.75000000  0.04284863  1
  Te  Te74  1  0.50000000  0.25000000  0.70715137  1
  Te  Te75  1  0.50000000  0.75000000  0.45715137  1
  Te  Te76  1  0.50000000  0.75000000  0.29284863  1
  Te  Te77  1  0.50000000  0.25000000  0.54284863  1
  Te  Te78  1  0.00000000  0.75000000  0.20715137  1
  Te  Te79  1  0.00000000  0.25000000  0.95715137  1
  Te  Te80  1  0.00000000  0.25000000  0.37500000  1
  Te  Te81  1  0.00000000  0.75000000  0.62500000  1
  Te  Te82  1  0.50000000  0.75000000  0.87500000  1
  Te  Te83  1  0.50000000  0.25000000  0.12500000  1
