# generated using pymatgen
data_LiF
_symmetry_space_group_name_H-M   'P 1'
_cell_length_a   10.35969156
_cell_length_b   9.62947561
_cell_length_c   19.02436849
_cell_angle_alpha   90.00000000
_cell_angle_beta   90.00000000
_cell_angle_gamma   90.00000000
_symmetry_Int_Tables_number   1
_chemical_formula_structural   LiF
_chemical_formula_sum   'Li64 F64'
_cell_volume   1897.84050858
_cell_formula_units_Z   64
loop_
 _symmetry_equiv_pos_site_id
 _symmetry_equiv_pos_as_xyz
  1  'x, y, z'
loop_
 _atom_site_type_symbol
 _atom_site_label
 _atom_site_symmetry_multiplicity
 _atom_site_fract_x
 _atom_site_fract_y
 _atom_site_fract_z
 _atom_site_occupancy
  F  F0  1  0.07536696  0.01621953  0.81971864  1
  F  F1  1  0.42463304  0.98378047  0.31971864  1
  F  F2  1  0.92463304  0.51621953  0.18028136  1
  F  F3  1  0.57536696  0.48378047  0.68028136  1
  F  F4  1  0.92463304  0.98378047  0.18028136  1
  F  F5  1  0.57536696  0.01621953  0.68028136  1
  F  F6  1  0.07536696  0.48378047  0.81971864  1
  F  F7  1  0.42463304  0.51621953  0.31971864  1
  F  F8  1  0.33458182  0.84642334  0.74999698  1
  F  F9  1  0.16541818  0.15357666  0.24999698  1
  F  F10  1  0.66541818  0.34642334  0.25000302  1
  F  F11  1  0.83458182  0.65357666  0.75000302  1
  F  F12  1  0.66541818  0.15357666  0.25000302  1
  F  F13  1  0.83458182  0.84642334  0.75000302  1
  F  F14  1  0.33458182  0.65357666  0.74999698  1
  F  F15  1  0.16541818  0.34642334  0.24999698  1
  F  F16  1  0.57809113  0.68158970  0.74738743  1
  F  F17  1  0.92190887  0.31841030  0.24738743  1
  F  F18  1  0.42190887  0.18158970  0.25261257  1
  F  F19  1  0.07809113  0.81841030  0.75261257  1
  F  F20  1  0.42190887  0.31841030  0.25261257  1
  F  F21  1  0.07809113  0.68158970  0.75261257  1
  F  F22  1  0.57809113  0.81841030  0.74738743  1
  F  F23  1  0.92190887  0.18158970  0.24738743  1
  F  F24  1  0.30537205  0.25000000  0.73361418  1
  F  F25  1  0.19462795  0.75000000  0.23361418  1
  F  F26  1  0.69462795  0.75000000  0.26638582  1
  F  F27  1  0.80537205  0.25000000  0.76638582  1
  F  F28  1  0.96668890  0.85072775  0.17716927  1
  F  F29  1  0.53331110  0.14927225  0.67716927  1
  F  F30  1  0.03331110  0.35072775  0.82283073  1
  F  F31  1  0.46668890  0.64927225  0.32283073  1
  F  F32  1  0.03331110  0.14927225  0.82283073  1
  F  F33  1  0.46668890  0.85072775  0.32283073  1
  F  F34  1  0.96668890  0.64927225  0.17716927  1
  F  F35  1  0.53331110  0.35072775  0.67716927  1
  F  F36  1  0.12526545  0.63942013  0.41629225  1
  F  F37  1  0.37473455  0.36057987  0.91629225  1
  F  F38  1  0.87473455  0.13942013  0.58370775  1
  F  F39  1  0.62526545  0.86057987  0.08370775  1
  F  F40  1  0.87473455  0.36057987  0.58370775  1
  F  F41  1  0.62526545  0.63942013  0.08370775  1
  F  F42  1  0.12526545  0.86057987  0.41629225  1
  F  F43  1  0.37473455  0.13942013  0.91629225  1
  F  F44  1  0.39395094  0.31516735  0.22470272  1
  F  F45  1  0.10604906  0.68483265  0.72470272  1
  F  F46  1  0.60604906  0.81516735  0.77529728  1
  F  F47  1  0.89395094  0.18483265  0.27529728  1
  F  F48  1  0.60604906  0.68483265  0.77529728  1
  F  F49  1  0.89395094  0.31516735  0.27529728  1
  F  F50  1  0.39395094  0.18483265  0.22470272  1
  F  F51  1  0.10604906  0.81516735  0.72470272  1
  F  F52  1  0.94082564  0.25000000  0.43939364  1
  F  F53  1  0.55917436  0.75000000  0.93939364  1
  F  F54  1  0.05917436  0.75000000  0.56060636  1
  F  F55  1  0.44082564  0.25000000  0.06060636  1
  F  F56  1  0.50766509  0.98362022  0.59144188  1
  F  F57  1  0.99233491  0.01637978  0.09144188  1
  F  F58  1  0.49233491  0.48362022  0.40855812  1
  F  F59  1  0.00766509  0.51637978  0.90855812  1
  F  F60  1  0.49233491  0.01637978  0.40855812  1
  F  F61  1  0.00766509  0.98362022  0.90855812  1
  F  F62  1  0.50766509  0.51637978  0.59144188  1
  F  F63  1  0.99233491  0.48362022  0.09144188  1
  Li  Li64  1  0.85317859  0.25000000  0.14930389  1
  Li  Li65  1  0.64682141  0.75000000  0.64930389  1
  Li  Li66  1  0.14682141  0.75000000  0.85069611  1
  Li  Li67  1  0.35317859  0.25000000  0.35069611  1
  Li  Li68  1  0.04794505  0.11327760  0.37434640  1
  Li  Li69  1  0.45205495  -0.11327760  0.87434640  1
  Li  Li70  1  -0.04794505  0.61327760  -0.37434640  1
  Li  Li71  1  0.54794505  0.38672240  0.12565360  1
  Li  Li72  1  -0.04794505  -0.11327760  -0.37434640  1
  Li  Li73  1  0.54794505  0.11327760  0.12565360  1
  Li  Li74  1  0.04794505  0.38672240  0.37434640  1
  Li  Li75  1  0.45205495  0.61327760  0.87434640  1
  Li  Li76  1  0.88837229  0.66150030  0.98733922  1
  Li  Li77  1  0.61162771  0.33849970  0.48733922  1
  Li  Li78  1  0.11162771  0.16150030  0.01266078  1
  Li  Li79  1  0.38837229  0.83849970  0.51266078  1
  Li  Li80  1  0.11162771  0.33849970  0.01266078  1
  Li  Li81  1  0.38837229  0.66150030  0.51266078  1
  Li  Li82  1  0.88837229  0.83849970  0.98733922  1
  Li  Li83  1  0.61162771  0.16150030  0.48733922  1
  Li  Li84  1  0.00000000  0.00000000  0.00000000  1
  Li  Li85  1  0.50000000  0.00000000  0.50000000  1
  Li  Li86  1  0.00000000  0.50000000  0.00000000  1
  Li  Li87  1  0.50000000  0.50000000  0.50000000  1
  Li  Li88  1  0.80746894  0.66667907  0.58319719  1
  Li  Li89  1  0.69253106  0.33332093  0.08319719  1
  Li  Li90  1  0.19253106  0.16667907  0.41680281  1
  Li  Li91  1  0.30746894  0.83332093  0.91680281  1
  Li  Li92  1  0.19253106  0.33332093  0.41680281  1
  Li  Li93  1  0.30746894  0.66667907  0.91680281  1
  Li  Li94  1  0.80746894  0.83332093  0.58319719  1
  Li  Li95  1  0.69253106  0.16667907  0.08319719  1
  Li  Li96  1  0.98825763  0.15080745  0.72100228  1
  Li  Li97  1  0.51174237  0.84919255  0.22100228  1
  Li  Li98  1  0.01174237  0.65080745  0.27899772  1
  Li  Li99  1  0.48825763  0.34919255  0.77899772  1
  Li  Li100  1  0.01174237  0.84919255  0.27899772  1
  Li  Li101  1  0.48825763  0.15080745  0.77899772  1
  Li  Li102  1  0.98825763  0.34919255  0.72100228  1
  Li  Li103  1  0.51174237  0.65080745  0.22100228  1
  Li  Li104  1  0.29806022  0.25000000  0.14255828  1
  Li  Li105  1  0.20193978  0.75000000  0.64255828  1
  Li  Li106  1  0.70193978  0.75000000  0.85744172  1
  Li  Li107  1  0.79806022  0.25000000  0.35744172  1
  Li  Li108  1  0.38361181  0.25000000  0.97484433  1
  Li  Li109  1  0.11638819  0.75000000  0.47484433  1
  Li  Li110  1  0.61638819  0.75000000  0.02515567  1
  Li  Li111  1  0.88361181  0.25000000  0.52515567  1
  Li  Li112  1  0.28820800  0.42198904  0.72837496  1
  Li  Li113  1  0.21179200  0.57801096  0.22837496  1
  Li  Li114  1  0.71179200  0.92198904  0.27162504  1
  Li  Li115  1  0.78820800  0.07801096  0.77162504  1
  Li  Li116  1  0.71179200  0.57801096  0.27162504  1
  Li  Li117  1  0.78820800  0.42198904  0.77162504  1
  Li  Li118  1  0.28820800  0.07801096  0.72837496  1
  Li  Li119  1  0.21179200  0.92198904  0.22837496  1
  Li  Li120  1  0.00000000  0.00000000  0.50000000  1
  Li  Li121  1  0.50000000  0.00000000  0.00000000  1
  Li  Li122  1  0.00000000  0.50000000  0.50000000  1
  Li  Li123  1  0.50000000  0.50000000  0.00000000  1
  Li  Li124  1  0.40892673  0.25000000  0.54122298  1
  Li  Li125  1  0.09107327  0.75000000  0.04122298  1
  Li  Li126  1  0.59107327  0.75000000  0.45877702  1
  Li  Li127  1  0.90892673  0.25000000  0.95877702  1
