# generated using pymatgen
data_Li4TeF2
_symmetry_space_group_name_H-M   'P 1'
_cell_length_a   13.63269326
_cell_length_b   13.63269326
_cell_length_c   15.82373221
_cell_angle_alpha   90.00000000
_cell_angle_beta   90.00000000
_cell_angle_gamma   90.00000000
_symmetry_Int_Tables_number   1
_chemical_formula_structural   Li4TeF2
_chemical_formula_sum   'Li96 Te24 F48'
_cell_volume   2940.84578452
_cell_formula_units_Z   24
loop_
 _symmetry_equiv_pos_site_id
 _symmetry_equiv_pos_as_xyz
  1  'x, y, z'
loop_
 _atom_site_type_symbol
 _atom_site_label
 _atom_site_symmetry_multiplicity
 _atom_site_fract_x
 _atom_site_fract_y
 _atom_site_fract_z
 _atom_site_occupancy
  F  F0  1  0.42322036  0.68787262  0.11978775  1
  F  F1  1  -0.42322036  -0.68787262  0.11978775  1
  F  F2  1  -0.68787262  0.42322036  0.11978775  1
  F  F3  1  0.68787262  -0.42322036  0.11978775  1
  F  F4  1  -0.42322036  0.68787262  -0.11978775  1
  F  F5  1  0.42322036  -0.68787262  -0.11978775  1
  F  F6  1  0.68787262  0.42322036  -0.11978775  1
  F  F7  1  -0.68787262  -0.42322036  -0.11978775  1
  F  F8  1  -0.42322036  -0.68787262  -0.11978775  1
  F  F9  1  0.42322036  0.68787262  -0.11978775  1
  F  F10  1  0.68787262  -0.42322036  -0.11978775  1
  F  F11  1  -0.68787262  0.42322036  -0.11978775  1
  F  F12  1  0.42322036  -0.68787262  0.11978775  1
  F  F13  1  -0.42322036  0.68787262  0.11978775  1
  F  F14  1  -0.68787262  -0.42322036  0.11978775  1
  F  F15  1  0.68787262  0.42322036  0.11978775  1
  F  F16  1  0.06330269  0.75620243  0.05198548  1
  F  F17  1  0.93669731  0.24379757  0.05198548  1
  F  F18  1  0.24379757  0.06330269  0.05198548  1
  F  F19  1  0.75620243  0.93669731  0.05198548  1
  F  F20  1  0.93669731  0.75620243  0.94801452  1
  F  F21  1  0.06330269  0.24379757  0.94801452  1
  F  F22  1  0.75620243  0.06330269  0.94801452  1
  F  F23  1  0.24379757  0.93669731  0.94801452  1
  F  F24  1  0.93669731  0.24379757  0.94801452  1
  F  F25  1  0.06330269  0.75620243  0.94801452  1
  F  F26  1  0.75620243  0.93669731  0.94801452  1
  F  F27  1  0.24379757  0.06330269  0.94801452  1
  F  F28  1  0.06330269  0.24379757  0.05198548  1
  F  F29  1  0.93669731  0.75620243  0.05198548  1
  F  F30  1  0.24379757  0.93669731  0.05198548  1
  F  F31  1  0.75620243  0.06330269  0.05198548  1
  F  F32  1  0.10814841  0.00000000  0.40833060  1
  F  F33  1  0.89185159  0.00000000  0.40833060  1
  F  F34  1  0.00000000  0.10814841  0.40833060  1
  F  F35  1  0.00000000  0.89185159  0.40833060  1
  F  F36  1  0.89185159  0.00000000  0.59166940  1
  F  F37  1  0.10814841  0.00000000  0.59166940  1
  F  F38  1  0.00000000  0.10814841  0.59166940  1
  F  F39  1  0.00000000  0.89185159  0.59166940  1
  F  F40  1  0.00000000  0.00000000  0.88489246  1
  F  F41  1  0.00000000  0.00000000  0.11510754  1
  F  F42  1  0.82281834  0.00000000  0.50000000  1
  F  F43  1  0.17718166  0.00000000  0.50000000  1
  F  F44  1  0.00000000  0.82281834  0.50000000  1
  F  F45  1  0.00000000  0.17718166  0.50000000  1
  F  F46  1  0.00000000  0.00000000  0.00000000  1
  F  F47  1  0.00000000  0.00000000  0.50000000  1
  Li  Li48  1  0.63661042  0.77681407  0.36989835  1
  Li  Li49  1  0.36338958  0.22318593  0.36989835  1
  Li  Li50  1  0.22318593  0.63661042  0.36989835  1
  Li  Li51  1  0.77681407  0.36338958  0.36989835  1
  Li  Li52  1  0.36338958  0.77681407  0.63010165  1
  Li  Li53  1  0.63661042  0.22318593  0.63010165  1
  Li  Li54  1  0.77681407  0.63661042  0.63010165  1
  Li  Li55  1  0.22318593  0.36338958  0.63010165  1
  Li  Li56  1  0.36338958  0.22318593  0.63010165  1
  Li  Li57  1  0.63661042  0.77681407  0.63010165  1
  Li  Li58  1  0.77681407  0.36338958  0.63010165  1
  Li  Li59  1  0.22318593  0.63661042  0.63010165  1
  Li  Li60  1  0.63661042  0.22318593  0.36989835  1
  Li  Li61  1  0.36338958  0.77681407  0.36989835  1
  Li  Li62  1  0.22318593  0.36338958  0.36989835  1
  Li  Li63  1  0.77681407  0.63661042  0.36989835  1
  Li  Li64  1  0.87494427  0.65822743  0.34097255  1
  Li  Li65  1  0.12505573  0.34177257  0.34097255  1
  Li  Li66  1  0.34177257  0.87494427  0.34097255  1
  Li  Li67  1  0.65822743  0.12505573  0.34097255  1
  Li  Li68  1  0.12505573  0.65822743  0.65902745  1
  Li  Li69  1  0.87494427  0.34177257  0.65902745  1
  Li  Li70  1  0.65822743  0.87494427  0.65902745  1
  Li  Li71  1  0.34177257  0.12505573  0.65902745  1
  Li  Li72  1  0.12505573  0.34177257  0.65902745  1
  Li  Li73  1  0.87494427  0.65822743  0.65902745  1
  Li  Li74  1  0.65822743  0.12505573  0.65902745  1
  Li  Li75  1  0.34177257  0.87494427  0.65902745  1
  Li  Li76  1  0.87494427  0.34177257  0.34097255  1
  Li  Li77  1  0.12505573  0.65822743  0.34097255  1
  Li  Li78  1  0.34177257  0.12505573  0.34097255  1
  Li  Li79  1  0.65822743  0.87494427  0.34097255  1
  Li  Li80  1  0.00000000  0.50000000  0.50000000  1
  Li  Li81  1  0.50000000  0.00000000  0.50000000  1
  Li  Li82  1  0.26437044  0.16033498  0.10114614  1
  Li  Li83  1  0.73562956  0.83966502  0.10114614  1
  Li  Li84  1  0.83966502  0.26437044  0.10114614  1
  Li  Li85  1  0.16033498  0.73562956  0.10114614  1
  Li  Li86  1  0.73562956  0.16033498  0.89885386  1
  Li  Li87  1  0.26437044  0.83966502  0.89885386  1
  Li  Li88  1  0.16033498  0.26437044  0.89885386  1
  Li  Li89  1  0.83966502  0.73562956  0.89885386  1
  Li  Li90  1  0.73562956  0.83966502  0.89885386  1
  Li  Li91  1  0.26437044  0.16033498  0.89885386  1
  Li  Li92  1  0.16033498  0.73562956  0.89885386  1
  Li  Li93  1  0.83966502  0.26437044  0.89885386  1
  Li  Li94  1  0.26437044  0.83966502  0.10114614  1
  Li  Li95  1  0.73562956  0.16033498  0.10114614  1
  Li  Li96  1  0.83966502  0.73562956  0.10114614  1
  Li  Li97  1  0.16033498  0.26437044  0.10114614  1
  Li  Li98  1  0.34602782  0.00000000  0.32322938  1
  Li  Li99  1  0.65397218  0.00000000  0.32322938  1
  Li  Li100  1  0.00000000  0.34602782  0.32322938  1
  Li  Li101  1  0.00000000  0.65397218  0.32322938  1
  Li  Li102  1  0.65397218  0.00000000  0.67677062  1
  Li  Li103  1  0.34602782  0.00000000  0.67677062  1
  Li  Li104  1  0.00000000  0.34602782  0.67677062  1
  Li  Li105  1  0.00000000  0.65397218  0.67677062  1
  Li  Li106  1  0.81834789  0.81834789  0.32667451  1
  Li  Li107  1  0.18165211  0.18165211  0.32667451  1
  Li  Li108  1  0.18165211  0.81834789  0.32667451  1
  Li  Li109  1  0.81834789  0.18165211  0.32667451  1
  Li  Li110  1  0.18165211  0.81834789  0.67332549  1
  Li  Li111  1  0.81834789  0.18165211  0.67332549  1
  Li  Li112  1  0.81834789  0.81834789  0.67332549  1
  Li  Li113  1  0.18165211  0.18165211  0.67332549  1
  Li  Li114  1  0.40002298  0.95022156  0.43207458  1
  Li  Li115  1  0.59997702  0.04977844  0.43207458  1
  Li  Li116  1  0.04977844  0.40002298  0.43207458  1
  Li  Li117  1  0.95022156  0.59997702  0.43207458  1
  Li  Li118  1  0.59997702  0.95022156  0.56792542  1
  Li  Li119  1  0.40002298  0.04977844  0.56792542  1
  Li  Li120  1  0.95022156  0.40002298  0.56792542  1
  Li  Li121  1  0.04977844  0.59997702  0.56792542  1
  Li  Li122  1  0.59997702  0.04977844  0.56792542  1
  Li  Li123  1  0.40002298  0.95022156  0.56792542  1
  Li  Li124  1  0.95022156  0.59997702  0.56792542  1
  Li  Li125  1  0.04977844  0.40002298  0.56792542  1
  Li  Li126  1  0.40002298  0.04977844  0.43207458  1
  Li  Li127  1  0.59997702  0.95022156  0.43207458  1
  Li  Li128  1  0.04977844  0.59997702  0.43207458  1
  Li  Li129  1  0.95022156  0.40002298  0.43207458  1
  Li  Li130  1  0.16903922  0.50000000  0.94549442  1
  Li  Li131  1  0.83096078  0.50000000  0.94549442  1
  Li  Li132  1  0.50000000  0.16903922  0.94549442  1
  Li  Li133  1  0.50000000  0.83096078  0.94549442  1
  Li  Li134  1  0.83096078  0.50000000  0.05450558  1
  Li  Li135  1  0.16903922  0.50000000  0.05450558  1
  Li  Li136  1  0.50000000  0.16903922  0.05450558  1
  Li  Li137  1  0.50000000  0.83096078  0.05450558  1
  Li  Li138  1  0.37587650  0.50000000  0.50000000  1
  Li  Li139  1  0.62412350  0.50000000  0.50000000  1
  Li  Li140  1  0.50000000  0.37587650  0.50000000  1
  Li  Li141  1  0.50000000  0.62412350  0.50000000  1
  Li  Li142  1  0.50000000  0.50000000  0.72731594  1
  Li  Li143  1  0.50000000  0.50000000  0.27268406  1
  Te  Te144  1  0.87429971  0.87429971  0.00000000  1
  Te  Te145  1  0.12570029  0.12570029  0.00000000  1
  Te  Te146  1  0.12570029  0.87429971  -0.00000000  1
  Te  Te147  1  0.87429971  0.12570029  0.00000000  1
  Te  Te148  1  0.84309525  0.56782039  0.74457871  1
  Te  Te149  1  0.15690475  0.43217961  0.74457871  1
  Te  Te150  1  0.43217961  0.84309525  0.74457871  1
  Te  Te151  1  0.56782039  0.15690475  0.74457871  1
  Te  Te152  1  0.15690475  0.56782039  0.25542129  1
  Te  Te153  1  0.84309525  0.43217961  0.25542129  1
  Te  Te154  1  0.56782039  0.84309525  0.25542129  1
  Te  Te155  1  0.43217961  0.15690475  0.25542129  1
  Te  Te156  1  0.15690475  0.43217961  0.25542129  1
  Te  Te157  1  0.84309525  0.56782039  0.25542129  1
  Te  Te158  1  0.56782039  0.15690475  0.25542129  1
  Te  Te159  1  0.43217961  0.84309525  0.25542129  1
  Te  Te160  1  0.84309525  0.43217961  0.74457871  1
  Te  Te161  1  0.15690475  0.56782039  0.74457871  1
  Te  Te162  1  0.43217961  0.15690475  0.74457871  1
  Te  Te163  1  0.56782039  0.84309525  0.74457871  1
  Te  Te164  1  0.35650813  0.00000000  0.00000000  1
  Te  Te165  1  0.64349187  0.00000000  0.00000000  1
  Te  Te166  1  0.00000000  0.35650813  0.00000000  1
  Te  Te167  1  0.00000000  0.64349187  0.00000000  1
