# generated using pymatgen
data_LiF
_symmetry_space_group_name_H-M   'P 1'
_cell_length_a   13.39098173
_cell_length_b   13.39098173
_cell_length_c   5.98538940
_cell_angle_alpha   90.00000000
_cell_angle_beta   90.00000000
_cell_angle_gamma   120.00000000
_symmetry_Int_Tables_number   1
_chemical_formula_structural   LiF
_chemical_formula_sum   'Li27 F27'
_cell_volume   929.49675344
_cell_formula_units_Z   27
loop_
 _symmetry_equiv_pos_site_id
 _symmetry_equiv_pos_as_xyz
  1  'x, y, z'
loop_
 _atom_site_type_symbol
 _atom_site_label
 _atom_site_symmetry_multiplicity
 _atom_site_fract_x
 _atom_site_fract_y
 _atom_site_fract_z
 _atom_site_occupancy
  F  F0  1  0.67192011  0.86804931  0.00000000  1
  F  F1  1  0.13195069  0.80387080  0.00000000  1
  F  F2  1  0.19612920  0.32807989  0.00000000  1
  F  F3  1  0.86804931  0.67192011  0.00000000  1
  F  F4  1  0.80387080  0.13195069  0.00000000  1
  F  F5  1  0.32807989  0.19612920  0.00000000  1
  F  F6  1  0.61807833  0.00000000  0.82766959  1
  F  F7  1  0.00000000  0.61807833  0.82766959  1
  F  F8  1  0.38192167  0.38192167  0.82766959  1
  F  F9  1  0.61807833  0.00000000  0.17233041  1
  F  F10  1  0.00000000  0.61807833  0.17233041  1
  F  F11  1  0.38192167  0.38192167  0.17233041  1
  F  F12  1  0.59583961  0.12790906  0.80486885  1
  F  F13  1  0.87209094  0.46793055  0.80486885  1
  F  F14  1  0.53206945  0.40416039  0.80486885  1
  F  F15  1  0.59583961  0.12790906  0.19513115  1
  F  F16  1  0.87209094  0.46793055  0.19513115  1
  F  F17  1  0.53206945  0.40416039  0.19513115  1
  F  F18  1  0.12790906  0.59583961  0.19513115  1
  F  F19  1  0.46793055  0.87209094  0.19513115  1
  F  F20  1  0.40416039  0.53206945  0.19513115  1
  F  F21  1  0.12790906  0.59583961  0.80486885  1
  F  F22  1  0.46793055  0.87209094  0.80486885  1
  F  F23  1  0.40416039  0.53206945  0.80486885  1
  F  F24  1  0.45912878  0.00000000  0.00000000  1
  F  F25  1  0.00000000  0.45912878  0.00000000  1
  F  F26  1  0.54087122  0.54087122  0.00000000  1
  Li  Li27  1  0.42794512  0.10320819  0.15174116  1
  Li  Li28  1  -0.10320819  0.32473693  0.15174116  1
  Li  Li29  1  -0.32473693  -0.42794512  0.15174116  1
  Li  Li30  1  0.42794512  0.10320819  -0.15174116  1
  Li  Li31  1  -0.10320819  0.32473693  -0.15174116  1
  Li  Li32  1  -0.32473693  -0.42794512  -0.15174116  1
  Li  Li33  1  0.10320819  0.42794512  -0.15174116  1
  Li  Li34  1  0.32473693  -0.10320819  -0.15174116  1
  Li  Li35  1  -0.42794512  -0.32473693  -0.15174116  1
  Li  Li36  1  0.10320819  0.42794512  0.15174116  1
  Li  Li37  1  0.32473693  -0.10320819  0.15174116  1
  Li  Li38  1  -0.42794512  -0.32473693  0.15174116  1
  Li  Li39  1  0.08321745  -0.00000000  0.50000000  1
  Li  Li40  1  0.00000000  0.08321745  0.50000000  1
  Li  Li41  1  0.91678255  0.91678255  0.50000000  1
  Li  Li42  1  0.70514369  0.17784778  0.50000000  1
  Li  Li43  1  0.82215222  0.52729592  0.50000000  1
  Li  Li44  1  0.47270408  0.29485631  0.50000000  1
  Li  Li45  1  0.17784778  0.70514369  0.50000000  1
  Li  Li46  1  0.52729592  0.82215222  0.50000000  1
  Li  Li47  1  0.29485631  0.47270408  0.50000000  1
  Li  Li48  1  0.00000000  0.00000000  0.14190959  1
  Li  Li49  1  0.00000000  0.00000000  0.85809041  1
  Li  Li50  1  0.33333333  0.66666667  0.50000000  1
  Li  Li51  1  0.66666667  0.33333333  0.50000000  1
  Li  Li52  1  0.33333333  0.66666667  0.00000000  1
  Li  Li53  1  0.66666667  0.33333333  -0.00000000  1
