# generated using pymatgen
data_LiF
_symmetry_space_group_name_H-M   'P 1'
_cell_length_a   11.60805681
_cell_length_b   6.11233603
_cell_length_c   10.86613262
_cell_angle_alpha   90.00000000
_cell_angle_beta   90.00000000
_cell_angle_gamma   90.00000000
_symmetry_Int_Tables_number   1
_chemical_formula_structural   LiF
_chemical_formula_sum   'Li24 F24'
_cell_volume   770.97757879
_cell_formula_units_Z   24
loop_
 _symmetry_equiv_pos_site_id
 _symmetry_equiv_pos_as_xyz
  1  'x, y, z'
loop_
 _atom_site_type_symbol
 _atom_site_label
 _atom_site_symmetry_multiplicity
 _atom_site_fract_x
 _atom_site_fract_y
 _atom_site_fract_z
 _atom_site_occupancy
  F  F0  1  0.92319243  0.25000000  0.39271876  1
  F  F1  1  0.57680757  0.75000000  0.89271876  1
  F  F2  1  0.07680757  0.75000000  0.60728124  1
  F  F3  1  0.42319243  0.25000000  0.10728124  1
  F  F4  1  0.37143087  0.31206083  0.47329189  1
  F  F5  1  0.12856913  0.68793917  0.97329189  1
  F  F6  1  0.62856913  0.81206083  0.52670811  1
  F  F7  1  0.87143087  0.18793917  0.02670811  1
  F  F8  1  0.62856913  0.68793917  0.52670811  1
  F  F9  1  0.87143087  0.31206083  0.02670811  1
  F  F10  1  0.37143087  0.18793917  0.47329189  1
  F  F11  1  0.12856913  0.81206083  0.97329189  1
  F  F12  1  0.14951324  0.25000000  0.23069464  1
  F  F13  1  0.35048676  0.75000000  0.73069464  1
  F  F14  1  0.85048676  0.75000000  0.76930536  1
  F  F15  1  0.64951324  0.25000000  0.26930536  1
  F  F16  1  0.10562484  0.31623031  0.89197950  1
  F  F17  1  0.39437516  0.68376969  0.39197950  1
  F  F18  1  0.89437516  0.81623031  0.10802050  1
  F  F19  1  0.60562484  0.18376969  0.60802050  1
  F  F20  1  0.89437516  0.68376969  0.10802050  1
  F  F21  1  0.60562484  0.31623031  0.60802050  1
  F  F22  1  0.10562484  0.18376969  0.89197950  1
  F  F23  1  0.39437516  0.81623031  0.39197950  1
  Li  Li24  1  0.00000000  0.00000000  0.50000000  1
  Li  Li25  1  0.50000000  0.00000000  0.00000000  1
  Li  Li26  1  0.00000000  0.50000000  0.50000000  1
  Li  Li27  1  0.50000000  0.50000000  -0.00000000  1
  Li  Li28  1  0.75796042  0.88531826  0.28044784  1
  Li  Li29  1  -0.25796042  -0.88531826  0.78044784  1
  Li  Li30  1  -0.75796042  1.38531826  -0.28044784  1
  Li  Li31  1  1.25796042  -0.38531826  0.21955216  1
  Li  Li32  1  -0.75796042  -0.88531826  -0.28044784  1
  Li  Li33  1  1.25796042  0.88531826  0.21955216  1
  Li  Li34  1  0.75796042  -0.38531826  0.28044784  1
  Li  Li35  1  -0.25796042  1.38531826  0.78044784  1
  Li  Li36  1  0.76078213  0.36558710  0.42213354  1
  Li  Li37  1  0.73921787  0.63441290  0.92213354  1
  Li  Li38  1  0.23921787  0.86558710  0.57786646  1
  Li  Li39  1  0.26078213  0.13441290  0.07786646  1
  Li  Li40  1  0.23921787  0.63441290  0.57786646  1
  Li  Li41  1  0.26078213  0.36558710  0.07786646  1
  Li  Li42  1  0.76078213  0.13441290  0.42213354  1
  Li  Li43  1  0.73921787  0.86558710  0.92213354  1
  Li  Li44  1  0.12510591  0.25000000  0.60652828  1
  Li  Li45  1  0.37489409  0.75000000  0.10652828  1
  Li  Li46  1  0.87489409  0.75000000  0.39347172  1
  Li  Li47  1  0.62510591  0.25000000  0.89347172  1
