# generated using pymatgen
data_LiF
_symmetry_space_group_name_H-M   'P 1'
_cell_length_a   5.13431679
_cell_length_b   5.13431679
_cell_length_c   22.84229067
_cell_angle_alpha   90.00000000
_cell_angle_beta   90.00000000
_cell_angle_gamma   120.00000000
_symmetry_Int_Tables_number   1
_chemical_formula_structural   LiF
_chemical_formula_sum   'Li24 F24'
_cell_volume   521.47753915
_cell_formula_units_Z   24
loop_
 _symmetry_equiv_pos_site_id
 _symmetry_equiv_pos_as_xyz
  1  'x, y, z'
loop_
 _atom_site_type_symbol
 _atom_site_label
 _atom_site_symmetry_multiplicity
 _atom_site_fract_x
 _atom_site_fract_y
 _atom_site_fract_z
 _atom_site_occupancy
  F  F0  1  0.02958913  0.35400602  0.48109365  1
  F  F1  1  0.64599398  0.67558311  0.48109365  1
  F  F2  1  0.32441689  0.97041087  0.48109365  1
  F  F3  1  0.64599398  0.97041087  0.51890635  1
  F  F4  1  0.32441689  0.35400602  0.51890635  1
  F  F5  1  0.02958913  0.67558311  0.51890635  1
  F  F6  1  0.33333333  0.66666667  0.00000000  1
  F  F7  1  0.57561250  0.83153829  0.66592892  1
  F  F8  1  0.16846171  0.74407421  0.66592892  1
  F  F9  1  0.25592579  0.42438750  0.66592892  1
  F  F10  1  0.16846171  0.42438750  0.33407108  1
  F  F11  1  0.25592579  0.83153829  0.33407108  1
  F  F12  1  0.57561250  0.74407421  0.33407108  1
  F  F13  1  0.49451110  0.25414991  0.65754294  1
  F  F14  1  0.74585009  0.24036119  0.65754294  1
  F  F15  1  0.75963881  0.50548890  0.65754294  1
  F  F16  1  0.74585009  0.50548890  0.34245706  1
  F  F17  1  0.75963881  0.25414991  0.34245706  1
  F  F18  1  0.49451110  0.24036119  0.34245706  1
  F  F19  1  0.00000000  0.00000000  0.00000000  1
  F  F20  1  0.33333333  0.66666667  0.50000000  1
  F  F21  1  0.14402361  0.85597639  0.50000000  1
  F  F22  1  0.14402361  0.28804722  0.50000000  1
  F  F23  1  0.71195278  0.85597639  0.50000000  1
  Li  Li24  1  0.72244458  0.78371606  0.13468908  1
  Li  Li25  1  -0.78371606  -0.06127148  0.13468908  1
  Li  Li26  1  0.06127148  -0.72244458  0.13468908  1
  Li  Li27  1  -0.78371606  -0.72244458  -0.13468908  1
  Li  Li28  1  0.06127148  0.78371606  -0.13468908  1
  Li  Li29  1  0.72244458  -0.06127148  -0.13468908  1
  Li  Li30  1  0.66666667  0.33333333  0.22932119  1
  Li  Li31  1  0.66666667  0.33333333  0.77067881  1
  Li  Li32  1  0.31401788  0.92277909  0.56581807  1
  Li  Li33  1  0.07722091  0.39123879  0.56581807  1
  Li  Li34  1  0.60876121  0.68598212  0.56581807  1
  Li  Li35  1  0.07722091  0.68598212  0.43418193  1
  Li  Li36  1  0.60876121  0.92277909  0.43418193  1
  Li  Li37  1  0.31401788  0.39123879  0.43418193  1
  Li  Li38  1  0.00000000  0.00000000  0.50000000  1
  Li  Li39  1  0.66666667  0.33333333  0.00000000  1
  Li  Li40  1  0.89633210  0.39631063  0.06942563  1
  Li  Li41  1  0.60368937  0.50002147  0.06942563  1
  Li  Li42  1  0.49997853  0.10366790  0.06942563  1
  Li  Li43  1  0.60368937  0.10366790  0.93057437  1
  Li  Li44  1  0.49997853  0.39631063  0.93057437  1
  Li  Li45  1  0.89633210  0.50002147  0.93057437  1
  Li  Li46  1  0.33333333  0.66666667  0.83342221  1
  Li  Li47  1  0.33333333  0.66666667  0.16657779  1
