# generated using pymatgen
data_Li2Si4Te3F12
_symmetry_space_group_name_H-M   'P 1'
_cell_length_a   7.92044123
_cell_length_b   7.92044123
_cell_length_c   19.68274010
_cell_angle_alpha   90.00000000
_cell_angle_beta   90.00000000
_cell_angle_gamma   90.00000000
_symmetry_Int_Tables_number   1
_chemical_formula_structural   Li2Si4Te3F12
_chemical_formula_sum   'Li8 Si16 Te12 F48'
_cell_volume   1234.76499703
_cell_formula_units_Z   4
loop_
 _symmetry_equiv_pos_site_id
 _symmetry_equiv_pos_as_xyz
  1  'x, y, z'
loop_
 _atom_site_type_symbol
 _atom_site_label
 _atom_site_symmetry_multiplicity
 _atom_site_fract_x
 _atom_site_fract_y
 _atom_site_fract_z
 _atom_site_occupancy
  F  F0  1  0.35500196  0.08746686  0.60928548  1
  F  F1  1  0.14499804  -0.08746686  1.10928548  1
  F  F2  1  0.16253314  1.10500196  0.85928548  1
  F  F3  1  0.33746686  -0.10500196  1.35928548  1
  F  F4  1  0.14499804  0.08746686  -0.10928548  1
  F  F5  1  0.35500196  -0.08746686  -0.60928548  1
  F  F6  1  0.33746686  1.10500196  -0.35928548  1
  F  F7  1  0.16253314  -0.10500196  0.14071452  1
  F  F8  1  -0.35500196  -0.08746686  -0.60928548  1
  F  F9  1  0.85500196  0.08746686  -0.10928548  1
  F  F10  1  0.83746686  -0.10500196  0.14071452  1
  F  F11  1  0.66253314  1.10500196  -0.35928548  1
  F  F12  1  0.85500196  -0.08746686  1.10928548  1
  F  F13  1  -0.35500196  0.08746686  0.60928548  1
  F  F14  1  0.66253314  -0.10500196  1.35928548  1
  F  F15  1  0.83746686  1.10500196  0.85928548  1
  F  F16  1  0.85500196  0.58746686  1.10928548  1
  F  F17  1  0.64499804  0.41253314  1.60928548  1
  F  F18  1  0.66253314  1.60500196  1.35928548  1
  F  F19  1  0.83746686  0.39499804  1.85928548  1
  F  F20  1  0.64499804  0.58746686  0.39071452  1
  F  F21  1  0.85500196  0.41253314  -0.10928548  1
  F  F22  1  0.83746686  1.60500196  0.14071452  1
  F  F23  1  0.66253314  0.39499804  0.64071452  1
  F  F24  1  0.14499804  0.41253314  -0.10928548  1
  F  F25  1  1.35500196  0.58746686  0.39071452  1
  F  F26  1  1.33746686  0.39499804  0.64071452  1
  F  F27  1  1.16253314  1.60500196  0.14071452  1
  F  F28  1  1.35500196  0.41253314  1.60928548  1
  F  F29  1  0.14499804  0.58746686  1.10928548  1
  F  F30  1  1.16253314  0.39499804  1.85928548  1
  F  F31  1  1.33746686  1.60500196  1.35928548  1
  F  F32  1  0.59448779  0.84448779  0.87500000  1
  F  F33  1  0.90551221  0.15551221  0.37500000  1
  F  F34  1  0.40551221  0.34448779  0.12500000  1
  F  F35  1  0.09448779  0.65551221  0.62500000  1
  F  F36  1  0.40551221  0.15551221  0.12500000  1
  F  F37  1  0.09448779  0.84448779  0.62500000  1
  F  F38  1  0.59448779  0.65551221  0.87500000  1
  F  F39  1  0.90551221  0.34448779  0.37500000  1
  F  F40  1  0.09448779  0.34448779  0.37500000  1
  F  F41  1  0.40551221  0.65551221  0.87500000  1
  F  F42  1  0.90551221  0.84448779  0.62500000  1
  F  F43  1  0.59448779  0.15551221  0.12500000  1
  F  F44  1  0.90551221  0.65551221  0.62500000  1
  F  F45  1  0.59448779  0.34448779  0.12500000  1
  F  F46  1  0.09448779  0.15551221  0.37500000  1
  F  F47  1  0.40551221  0.84448779  0.87500000  1
  Li  Li48  1  0.00000000  0.00000000  0.00000000  1
  Li  Li49  1  0.50000000  -0.00000000  0.50000000  1
  Li  Li50  1  0.25000000  0.75000000  0.25000000  1
  Li  Li51  1  0.25000000  0.25000000  0.75000000  1
  Li  Li52  1  0.50000000  0.50000000  0.50000000  1
  Li  Li53  1  0.00000000  0.50000000  -0.00000000  1
  Li  Li54  1  0.75000000  0.25000000  0.75000000  1
  Li  Li55  1  0.75000000  0.75000000  0.25000000  1
  Si  Si56  1  0.00000000  0.96285245  0.60237724  1
  Si  Si57  1  0.50000000  0.03714755  0.10237724  1
  Si  Si58  1  0.28714755  0.75000000  0.85237724  1
  Si  Si59  1  0.21285245  0.25000000  0.35237724  1
  Si  Si60  1  0.50000000  0.96285245  0.89762276  1
  Si  Si61  1  0.00000000  0.03714755  0.39762276  1
  Si  Si62  1  0.21285245  0.75000000  0.64762276  1
  Si  Si63  1  0.28714755  0.25000000  0.14762276  1
  Si  Si64  1  0.50000000  0.46285245  0.10237724  1
  Si  Si65  1  0.00000000  0.53714755  0.60237724  1
  Si  Si66  1  0.78714755  0.25000000  0.35237724  1
  Si  Si67  1  0.71285245  0.75000000  0.85237724  1
  Si  Si68  1  0.00000000  0.46285245  0.39762276  1
  Si  Si69  1  0.50000000  0.53714755  0.89762276  1
  Si  Si70  1  0.71285245  0.25000000  0.14762276  1
  Si  Si71  1  0.78714755  0.75000000  0.64762276  1
  Te  Te72  1  0.00000000  0.25000000  0.60318994  1
  Te  Te73  1  0.00000000  0.75000000  0.85318994  1
  Te  Te74  1  0.50000000  0.25000000  0.89681006  1
  Te  Te75  1  0.50000000  0.75000000  0.64681006  1
  Te  Te76  1  0.50000000  0.75000000  0.10318994  1
  Te  Te77  1  0.50000000  0.25000000  0.35318994  1
  Te  Te78  1  0.00000000  0.75000000  0.39681006  1
  Te  Te79  1  0.00000000  0.25000000  0.14681006  1
  Te  Te80  1  0.00000000  0.25000000  0.37500000  1
  Te  Te81  1  0.00000000  0.75000000  0.62500000  1
  Te  Te82  1  0.50000000  0.75000000  0.87500000  1
  Te  Te83  1  0.50000000  0.25000000  0.12500000  1
