# generated using pymatgen
data_Li2YP4
_symmetry_space_group_name_H-M   'P 1'
_cell_length_a   4.24799143
_cell_length_b   4.40072623
_cell_length_c   7.00414134
_cell_angle_alpha   96.71719020
_cell_angle_beta   104.62864377
_cell_angle_gamma   116.98028333
_symmetry_Int_Tables_number   1
_chemical_formula_structural   Li2YP4
_chemical_formula_sum   'Li2 Y1 P4'
_cell_volume   108.75682773
_cell_formula_units_Z   1
loop_
 _symmetry_equiv_pos_site_id
 _symmetry_equiv_pos_as_xyz
  1  'x, y, z'
loop_
 _atom_site_type_symbol
 _atom_site_label
 _atom_site_symmetry_multiplicity
 _atom_site_fract_x
 _atom_site_fract_y
 _atom_site_fract_z
 _atom_site_occupancy
  P  P0  1  0.00000000  0.00000000  0.00000000  1
  P  P1  1  0.33300000  0.66700000  0.25000000  1
  P  P2  1  0.66700000  0.33300000  0.50000000  1
  P  P3  1  0.00000000  0.00000000  0.75000000  1
  Li  Li4  1  0.08173221  0.33558119  0.21232947  1
  Li  Li5  1  0.82717057  0.89600390  0.13790844  1
  Y  Y6  1  0.92309198  0.17177509  0.25996079  1
