# generated using pymatgen
data_LiF
_symmetry_space_group_name_H-M   'P 1'
_cell_length_a   13.17284272
_cell_length_b   13.17284272
_cell_length_c   4.32678513
_cell_angle_alpha   90.00000000
_cell_angle_beta   90.00000000
_cell_angle_gamma   90.00000000
_symmetry_Int_Tables_number   1
_chemical_formula_structural   LiF
_chemical_formula_sum   'Li32 F32'
_cell_volume   750.80013451
_cell_formula_units_Z   32
loop_
 _symmetry_equiv_pos_site_id
 _symmetry_equiv_pos_as_xyz
  1  'x, y, z'
loop_
 _atom_site_type_symbol
 _atom_site_label
 _atom_site_symmetry_multiplicity
 _atom_site_fract_x
 _atom_site_fract_y
 _atom_site_fract_z
 _atom_site_occupancy
  F  F0  1  0.55328378  0.00000000  0.25000000  1
  F  F1  1  0.94671622  0.00000000  0.75000000  1
  F  F2  1  0.25000000  0.30328378  0.50000000  1
  F  F3  1  0.25000000  0.69671622  0.00000000  1
  F  F4  1  0.44671622  -0.00000000  0.75000000  1
  F  F5  1  0.05328378  0.00000000  0.25000000  1
  F  F6  1  0.75000000  0.69671622  0.50000000  1
  F  F7  1  0.75000000  0.30328378  0.00000000  1
  F  F8  1  0.05328378  0.50000000  0.75000000  1
  F  F9  1  0.44671622  0.50000000  0.25000000  1
  F  F10  1  0.75000000  0.80328378  0.00000000  1
  F  F11  1  0.75000000  0.19671622  0.50000000  1
  F  F12  1  0.94671622  0.50000000  0.25000000  1
  F  F13  1  0.55328378  0.50000000  0.75000000  1
  F  F14  1  0.25000000  0.19671622  0.00000000  1
  F  F15  1  0.25000000  0.80328378  0.50000000  1
  F  F16  1  0.00000000  0.25000000  0.12500000  1
  F  F17  1  0.00000000  0.75000000  0.37500000  1
  F  F18  1  0.00000000  0.75000000  0.87500000  1
  F  F19  1  0.00000000  0.25000000  0.62500000  1
  F  F20  1  0.50000000  0.75000000  0.62500000  1
  F  F21  1  0.50000000  0.25000000  0.87500000  1
  F  F22  1  0.50000000  0.25000000  0.37500000  1
  F  F23  1  0.50000000  0.75000000  0.12500000  1
  F  F24  1  0.00000000  0.25000000  0.37500000  1
  F  F25  1  0.00000000  0.75000000  0.62500000  1
  F  F26  1  0.50000000  0.25000000  0.62500000  1
  F  F27  1  0.50000000  0.75000000  0.37500000  1
  F  F28  1  0.50000000  0.75000000  0.87500000  1
  F  F29  1  0.50000000  0.25000000  0.12500000  1
  F  F30  1  0.00000000  0.75000000  0.12500000  1
  F  F31  1  0.00000000  0.25000000  0.87500000  1
  Li  Li32  1  0.15913916  0.20996706  0.16028250  1
  Li  Li33  1  0.34086084  -0.20996706  0.66028250  1
  Li  Li34  1  0.04003294  0.90913916  0.41028250  1
  Li  Li35  1  0.45996706  0.09086084  0.91028250  1
  Li  Li36  1  0.34086084  0.20996706  -0.16028250  1
  Li  Li37  1  0.15913916  -0.20996706  0.33971750  1
  Li  Li38  1  0.45996706  0.90913916  0.58971750  1
  Li  Li39  1  0.04003294  0.09086084  0.08971750  1
  Li  Li40  1  -0.15913916  -0.20996706  -0.16028250  1
  Li  Li41  1  0.65913916  0.20996706  0.33971750  1
  Li  Li42  1  0.95996706  0.09086084  0.58971750  1
  Li  Li43  1  0.54003294  0.90913916  0.08971750  1
  Li  Li44  1  0.65913916  -0.20996706  0.16028250  1
  Li  Li45  1  -0.15913916  0.20996706  0.66028250  1
  Li  Li46  1  0.54003294  0.09086084  0.41028250  1
  Li  Li47  1  0.95996706  0.90913916  0.91028250  1
  Li  Li48  1  0.65913916  0.70996706  0.66028250  1
  Li  Li49  1  0.84086084  0.29003294  1.16028250  1
  Li  Li50  1  0.54003294  1.40913916  0.91028250  1
  Li  Li51  1  0.95996706  0.59086084  1.41028250  1
  Li  Li52  1  0.84086084  0.70996706  0.33971750  1
  Li  Li53  1  0.65913916  0.29003294  0.83971750  1
  Li  Li54  1  0.95996706  1.40913916  1.08971750  1
  Li  Li55  1  0.54003294  0.59086084  0.58971750  1
  Li  Li56  1  0.34086084  0.29003294  0.33971750  1
  Li  Li57  1  1.15913916  0.70996706  0.83971750  1
  Li  Li58  1  1.45996706  0.59086084  1.08971750  1
  Li  Li59  1  1.04003294  1.40913916  0.58971750  1
  Li  Li60  1  1.15913916  0.29003294  0.66028250  1
  Li  Li61  1  0.34086084  0.70996706  1.16028250  1
  Li  Li62  1  1.04003294  0.59086084  0.91028250  1
  Li  Li63  1  1.45996706  1.40913916  1.41028250  1
