# generated using pymatgen
data_Li2YAs2P3Se2
_symmetry_space_group_name_H-M   'P 1'
_cell_length_a   5.49076777
_cell_length_b   5.60755670
_cell_length_c   7.21205873
_cell_angle_alpha   94.20769509
_cell_angle_beta   98.96055695
_cell_angle_gamma   105.91447357
_symmetry_Int_Tables_number   1
_chemical_formula_structural   Li2YAs2P3Se2
_chemical_formula_sum   'Li2 Y1 As2 P3 Se2'
_cell_volume   209.35975615
_cell_formula_units_Z   1
loop_
 _symmetry_equiv_pos_site_id
 _symmetry_equiv_pos_as_xyz
  1  'x, y, z'
loop_
 _atom_site_type_symbol
 _atom_site_label
 _atom_site_symmetry_multiplicity
 _atom_site_fract_x
 _atom_site_fract_y
 _atom_site_fract_z
 _atom_site_occupancy
  Se  Se0  1  0.00000000  0.00000000  0.00000000  1
  Se  Se1  1  0.50000000  0.50000000  0.50000000  1
  P  P2  1  0.50000000  0.50000000  0.00000000  1
  P  P3  1  0.50000000  0.00000000  0.50000000  1
  P  P4  1  0.00000000  0.50000000  0.50000000  1
  As  As5  1  0.02120108  0.53635775  0.75915185  1
  As  As6  1  0.13896649  0.88111162  0.99734323  1
  Li  Li7  1  0.49214704  0.19267137  0.92760005  1
  Li  Li8  1  0.04335281  0.23095820  0.49852060  1
  Y  Y9  1  0.23248226  0.87634698  0.54633570  1
