# generated using pymatgen
data_LiF
_symmetry_space_group_name_H-M   'P 1'
_cell_length_a   9.45889584
_cell_length_b   5.34765200
_cell_length_c   14.38728908
_cell_angle_alpha   90.00000000
_cell_angle_beta   90.00000000
_cell_angle_gamma   90.00000000
_symmetry_Int_Tables_number   1
_chemical_formula_structural   LiF
_chemical_formula_sum   'Li24 F24'
_cell_volume   727.75056443
_cell_formula_units_Z   24
loop_
 _symmetry_equiv_pos_site_id
 _symmetry_equiv_pos_as_xyz
  1  'x, y, z'
loop_
 _atom_site_type_symbol
 _atom_site_label
 _atom_site_symmetry_multiplicity
 _atom_site_fract_x
 _atom_site_fract_y
 _atom_site_fract_z
 _atom_site_occupancy
  F  F0  1  0.06158338  0.60154932  0.45485027  1
  F  F1  1  0.43841662  0.39845068  0.95485027  1
  F  F2  1  0.93841662  0.10154932  0.54514973  1
  F  F3  1  0.56158338  0.89845068  0.04514973  1
  F  F4  1  0.93841662  0.39845068  0.54514973  1
  F  F5  1  0.56158338  0.60154932  0.04514973  1
  F  F6  1  0.06158338  0.89845068  0.45485027  1
  F  F7  1  0.43841662  0.10154932  0.95485027  1
  F  F8  1  0.14152851  0.92401395  0.92428633  1
  F  F9  1  0.35847149  0.07598605  0.42428633  1
  F  F10  1  0.85847149  0.42401395  0.07571367  1
  F  F11  1  0.64152851  0.57598605  0.57571367  1
  F  F12  1  0.85847149  0.07598605  0.07571367  1
  F  F13  1  0.64152851  0.92401395  0.57571367  1
  F  F14  1  0.14152851  0.57598605  0.92428633  1
  F  F15  1  0.35847149  0.42401395  0.42428633  1
  F  F16  1  0.76905217  0.00927810  0.07132544  1
  F  F17  1  0.73094783  0.99072190  0.57132544  1
  F  F18  1  0.23094783  0.50927810  0.92867456  1
  F  F19  1  0.26905217  0.49072190  0.42867456  1
  F  F20  1  0.23094783  0.99072190  0.92867456  1
  F  F21  1  0.26905217  0.00927810  0.42867456  1
  F  F22  1  0.76905217  0.49072190  0.07132544  1
  F  F23  1  0.73094783  0.50927810  0.57132544  1
  Li  Li24  1  0.68409115  0.49570018  0.94413742  1
  Li  Li25  1  -0.18409115  -0.49570018  1.44413742  1
  Li  Li26  1  -0.68409115  0.99570018  -0.94413742  1
  Li  Li27  1  1.18409115  0.00429982  -0.44413742  1
  Li  Li28  1  -0.68409115  -0.49570018  -0.94413742  1
  Li  Li29  1  1.18409115  0.49570018  -0.44413742  1
  Li  Li30  1  0.68409115  0.00429982  0.94413742  1
  Li  Li31  1  -0.18409115  0.99570018  1.44413742  1
  Li  Li32  1  0.27951263  0.25000000  0.74591920  1
  Li  Li33  1  0.22048737  0.75000000  0.24591920  1
  Li  Li34  1  0.72048737  0.75000000  0.25408080  1
  Li  Li35  1  0.77951263  0.25000000  0.75408080  1
  Li  Li36  1  0.52085486  0.25000000  0.64185465  1
  Li  Li37  1  0.97914514  0.75000000  0.14185465  1
  Li  Li38  1  0.47914514  0.75000000  0.35814535  1
  Li  Li39  1  0.02085486  0.25000000  0.85814535  1
  Li  Li40  1  0.00000000  0.00000000  0.00000000  1
  Li  Li41  1  0.50000000  0.00000000  0.50000000  1
  Li  Li42  1  0.00000000  0.50000000  0.00000000  1
  Li  Li43  1  0.50000000  0.50000000  0.50000000  1
  Li  Li44  1  0.87709937  0.25000000  0.96984680  1
  Li  Li45  1  0.62290063  0.75000000  0.46984680  1
  Li  Li46  1  0.12290063  0.75000000  0.03015320  1
  Li  Li47  1  0.37709937  0.25000000  0.53015320  1
