# generated using pymatgen
data_Li2Y2Mo2P2Se
_symmetry_space_group_name_H-M   'P 1'
_cell_length_a   4.54916303
_cell_length_b   4.84829829
_cell_length_c   6.37063597
_cell_angle_alpha   93.77911950
_cell_angle_beta   98.66433470
_cell_angle_gamma   105.53294187
_symmetry_Int_Tables_number   1
_chemical_formula_structural   Li2Y2Mo2P2Se
_chemical_formula_sum   'Li2 Y2 Mo2 P2 Se1'
_cell_volume   132.99672406
_cell_formula_units_Z   1
loop_
 _symmetry_equiv_pos_site_id
 _symmetry_equiv_pos_as_xyz
  1  'x, y, z'
loop_
 _atom_site_type_symbol
 _atom_site_label
 _atom_site_symmetry_multiplicity
 _atom_site_fract_x
 _atom_site_fract_y
 _atom_site_fract_z
 _atom_site_occupancy
  Se  Se0  1  0.00000000  0.00000000  0.00000000  1
  P  P1  1  0.50000000  0.50000000  0.50000000  1
  P  P2  1  0.50000000  0.50000000  0.00000000  1
  Mo  Mo3  1  0.50000000  0.00000000  0.50000000  1
  Mo  Mo4  1  0.00000000  0.50000000  0.50000000  1
  Li  Li5  1  0.32726250  0.39790687  0.81682048  1
  Li  Li6  1  0.65992715  0.53729620  0.48181372  1
  Y  Y7  1  0.27339525  0.16921741  0.85086377  1
  Y  Y8  1  0.21157945  0.03728013  0.84856339  1
