# generated using pymatgen
data_Li2Y2P4Se
_symmetry_space_group_name_H-M   'P 1'
_cell_length_a   5.33601568
_cell_length_b   5.54308458
_cell_length_c   7.37658107
_cell_angle_alpha   94.16603587
_cell_angle_beta   99.07276003
_cell_angle_gamma   106.73331034
_symmetry_Int_Tables_number   1
_chemical_formula_structural   Li2Y2P4Se
_chemical_formula_sum   'Li2 Y2 P4 Se1'
_cell_volume   204.71742511
_cell_formula_units_Z   1
loop_
 _symmetry_equiv_pos_site_id
 _symmetry_equiv_pos_as_xyz
  1  'x, y, z'
loop_
 _atom_site_type_symbol
 _atom_site_label
 _atom_site_symmetry_multiplicity
 _atom_site_fract_x
 _atom_site_fract_y
 _atom_site_fract_z
 _atom_site_occupancy
  Se  Se0  1  0.00000000  0.00000000  0.00000000  1
  Y  Y1  1  0.33300000  0.66700000  0.25000000  1
  Y  Y2  1  0.66700000  0.33300000  0.50000000  1
  P  P3  1  0.00000000  0.00000000  0.75000000  1
  P  P4  1  0.47618096  0.90412498  0.61040954  1
  P  P5  1  0.04594467  0.17692951  0.38669052  1
  P  P6  1  0.48938921  0.94336656  0.18143563  1
  Li  Li7  1  0.34042023  0.79787494  0.67334101  1
  Li  Li8  1  0.58512596  0.83966001  0.48376081  1
