# generated using pymatgen
data_LiF
_symmetry_space_group_name_H-M   'P 1'
_cell_length_a   5.86396940
_cell_length_b   6.32278632
_cell_length_c   9.66345883
_cell_angle_alpha   90.00000000
_cell_angle_beta   90.00000000
_cell_angle_gamma   90.00000000
_symmetry_Int_Tables_number   1
_chemical_formula_structural   LiF
_chemical_formula_sum   'Li24 F24'
_cell_volume   358.28844464
_cell_formula_units_Z   24
loop_
 _symmetry_equiv_pos_site_id
 _symmetry_equiv_pos_as_xyz
  1  'x, y, z'
loop_
 _atom_site_type_symbol
 _atom_site_label
 _atom_site_symmetry_multiplicity
 _atom_site_fract_x
 _atom_site_fract_y
 _atom_site_fract_z
 _atom_site_occupancy
  F  F0  1  0.03668255  0.30743047  0.34762613  1
  F  F1  1  0.46331745  -0.30743047  0.84762613  1
  F  F2  1  -0.03668255  0.80743047  -0.34762613  1
  F  F3  1  0.53668255  0.19256953  0.15237387  1
  F  F4  1  -0.03668255  -0.30743047  -0.34762613  1
  F  F5  1  0.53668255  0.30743047  0.15237387  1
  F  F6  1  0.03668255  0.19256953  0.34762613  1
  F  F7  1  0.46331745  0.80743047  0.84762613  1
  F  F8  1  0.83177083  0.90537235  0.43964783  1
  F  F9  1  0.66822917  0.09462765  0.93964783  1
  F  F10  1  0.16822917  0.40537235  0.56035217  1
  F  F11  1  0.33177083  0.59462765  0.06035217  1
  F  F12  1  0.16822917  0.09462765  0.56035217  1
  F  F13  1  0.33177083  0.90537235  0.06035217  1
  F  F14  1  0.83177083  0.59462765  0.43964783  1
  F  F15  1  0.66822917  0.40537235  0.93964783  1
  F  F16  1  0.77144557  0.56403551  0.33150141  1
  F  F17  1  0.72855443  0.43596449  0.83150141  1
  F  F18  1  0.22855443  0.06403551  0.66849859  1
  F  F19  1  0.27144557  0.93596449  0.16849859  1
  F  F20  1  0.22855443  0.43596449  0.66849859  1
  F  F21  1  0.27144557  0.56403551  0.16849859  1
  F  F22  1  0.77144557  0.93596449  0.33150141  1
  F  F23  1  0.72855443  0.06403551  0.83150141  1
  Li  Li24  1  0.57732787  0.25000000  0.97623764  1
  Li  Li25  1  0.92267213  0.75000000  0.47623764  1
  Li  Li26  1  0.42267213  0.75000000  0.02376236  1
  Li  Li27  1  0.07732787  0.25000000  0.52376236  1
  Li  Li28  1  0.39174012  0.25000000  0.27945570  1
  Li  Li29  1  0.10825988  0.75000000  0.77945570  1
  Li  Li30  1  0.60825988  0.75000000  0.72054430  1
  Li  Li31  1  0.89174012  0.25000000  0.22054430  1
  Li  Li32  1  0.00000000  0.00000000  0.00000000  1
  Li  Li33  1  0.50000000  0.00000000  0.50000000  1
  Li  Li34  1  0.00000000  0.50000000  0.00000000  1
  Li  Li35  1  0.50000000  0.50000000  0.50000000  1
  Li  Li36  1  0.12083937  0.25000000  0.08788031  1
  Li  Li37  1  0.37916063  0.75000000  0.58788031  1
  Li  Li38  1  0.87916063  0.75000000  0.91211969  1
  Li  Li39  1  0.62083937  0.25000000  0.41211969  1
  Li  Li40  1  0.58070262  0.25000000  0.70576215  1
  Li  Li41  1  0.91929738  0.75000000  0.20576215  1
  Li  Li42  1  0.41929738  0.75000000  0.29423785  1
  Li  Li43  1  0.08070262  0.25000000  0.79423785  1
  Li  Li44  1  0.00000000  0.00000000  0.50000000  1
  Li  Li45  1  0.50000000  0.00000000  0.00000000  1
  Li  Li46  1  0.00000000  0.50000000  0.50000000  1
  Li  Li47  1  0.50000000  0.50000000  0.00000000  1
