# generated using pymatgen
data_Li2Ca3F8
_symmetry_space_group_name_H-M   'P 1'
_cell_length_a   13.87096046
_cell_length_b   13.87096046
_cell_length_c   6.79304581
_cell_angle_alpha   90.00000000
_cell_angle_beta   90.00000000
_cell_angle_gamma   120.00000000
_symmetry_Int_Tables_number   1
_chemical_formula_structural   Li2Ca3F8
_chemical_formula_sum   'Li16 Ca24 F64'
_cell_volume   1131.90047457
_cell_formula_units_Z   8
loop_
 _symmetry_equiv_pos_site_id
 _symmetry_equiv_pos_as_xyz
  1  'x, y, z'
loop_
 _atom_site_type_symbol
 _atom_site_label
 _atom_site_symmetry_multiplicity
 _atom_site_fract_x
 _atom_site_fract_y
 _atom_site_fract_z
 _atom_site_occupancy
  Ca  Ca0  1  0.83787789  0.89090518  0.68836504  1
  Ca  Ca1  1  0.10909482  0.94697271  0.68836504  1
  Ca  Ca2  1  0.05302729  0.16212211  0.68836504  1
  Ca  Ca3  1  0.10909482  0.16212211  0.31163496  1
  Ca  Ca4  1  0.05302729  0.89090518  0.31163496  1
  Ca  Ca5  1  0.83787789  0.94697271  0.31163496  1
  Ca  Ca6  1  0.25455002  0.77870274  0.36364614  1
  Ca  Ca7  1  0.22129726  0.47584728  0.36364614  1
  Ca  Ca8  1  0.52415272  0.74544998  0.36364614  1
  Ca  Ca9  1  0.22129726  0.74544998  0.63635386  1
  Ca  Ca10  1  0.52415272  0.77870274  0.63635386  1
  Ca  Ca11  1  0.25455002  0.47584728  0.63635386  1
  Ca  Ca12  1  0.28723265  0.38419356  0.29207234  1
  Ca  Ca13  1  0.61580644  0.90303909  0.29207234  1
  Ca  Ca14  1  0.09696091  0.71276735  0.29207234  1
  Ca  Ca15  1  0.61580644  0.71276735  0.70792766  1
  Ca  Ca16  1  0.09696091  0.38419356  0.70792766  1
  Ca  Ca17  1  0.28723265  0.90303909  0.70792766  1
  Ca  Ca18  1  0.80805638  0.55279326  0.36033670  1
  Ca  Ca19  1  0.44720674  0.25526312  0.36033670  1
  Ca  Ca20  1  0.74473688  0.19194362  0.36033670  1
  Ca  Ca21  1  0.44720674  0.19194362  0.63966330  1
  Ca  Ca22  1  0.74473688  0.55279326  0.63966330  1
  Ca  Ca23  1  0.80805638  0.25526312  0.63966330  1
  F  F24  1  0.57438351  0.42561649  0.50000000  1
  F  F25  1  0.57438351  0.14876703  0.50000000  1
  F  F26  1  0.85123297  0.42561649  0.50000000  1
  F  F27  1  0.06677094  0.85147150  0.87194991  1
  F  F28  1  -0.85147150  -0.78470056  0.87194991  1
  F  F29  1  0.78470056  -0.06677094  0.87194991  1
  F  F30  1  -0.85147150  -0.06677094  -0.87194991  1
  F  F31  1  0.78470056  0.85147150  -0.87194991  1
  F  F32  1  0.06677094  -0.78470056  -0.87194991  1
  F  F33  1  0.77179697  0.80290234  0.29233729  1
  F  F34  1  0.19709766  0.96889463  0.29233729  1
  F  F35  1  0.03110537  0.22820303  0.29233729  1
  F  F36  1  0.19709766  0.22820303  0.70766271  1
  F  F37  1  0.03110537  0.80290234  0.70766271  1
  F  F38  1  0.77179697  0.96889463  0.70766271  1
  F  F39  1  0.40295828  0.22637714  0.89647923  1
  F  F40  1  0.77362286  0.17658113  0.89647923  1
  F  F41  1  0.82341887  0.59704172  0.89647923  1
  F  F42  1  0.77362286  0.59704172  0.10352077  1
  F  F43  1  0.82341887  0.22637714  0.10352077  1
  F  F44  1  0.40295828  0.17658113  0.10352077  1
  F  F45  1  0.30769665  0.50795955  0.17446628  1
  F  F46  1  0.49204045  0.79973711  0.17446628  1
  F  F47  1  0.20026289  0.69230335  0.17446628  1
  F  F48  1  0.49204045  0.69230335  0.82553372  1
  F  F49  1  0.20026289  0.50795955  0.82553372  1
  F  F50  1  0.30769665  0.79973711  0.82553372  1
  F  F51  1  0.80945849  0.19054151  0.50000000  1
  F  F52  1  0.80945849  0.61891698  0.50000000  1
  F  F53  1  0.38108302  0.19054151  0.50000000  1
  F  F54  1  0.00000000  0.00000000  0.00000000  1
  F  F55  1  0.54542560  0.25625660  0.43958947  1
  F  F56  1  0.74374340  0.28916899  0.43958947  1
  F  F57  1  0.71083101  0.45457440  0.43958947  1
  F  F58  1  0.74374340  0.45457440  0.56041053  1
  F  F59  1  0.71083101  0.25625660  0.56041053  1
  F  F60  1  0.54542560  0.28916899  0.56041053  1
  F  F61  1  0.03154127  0.69992127  0.61115188  1
  F  F62  1  0.30007873  0.33162000  0.61115188  1
  F  F63  1  0.66838000  0.96845873  0.61115188  1
  F  F64  1  0.30007873  0.96845873  0.38884812  1
  F  F65  1  0.66838000  0.69992127  0.38884812  1
  F  F66  1  0.03154127  0.33162000  0.38884812  1
  F  F67  1  0.86228017  0.50661379  0.72288940  1
  F  F68  1  0.49338621  0.35566637  0.72288940  1
  F  F69  1  0.64433363  0.13771983  0.72288940  1
  F  F70  1  0.49338621  0.13771983  0.27711060  1
  F  F71  1  0.64433363  0.50661379  0.27711060  1
  F  F72  1  0.86228017  0.35566637  0.27711060  1
  F  F73  1  0.34284358  0.16978298  0.15057077  1
  F  F74  1  0.83021702  0.17306060  0.15057077  1
  F  F75  1  0.82693940  0.65715642  0.15057077  1
  F  F76  1  0.83021702  0.65715642  0.84942923  1
  F  F77  1  0.82693940  0.16978298  0.84942923  1
  F  F78  1  0.34284358  0.17306060  0.84942923  1
  F  F79  1  0.40005436  0.98163804  0.98256242  1
  F  F80  1  0.01836196  0.41841632  0.98256242  1
  F  F81  1  0.58158368  0.59994564  0.98256242  1
  F  F82  1  0.01836196  0.59994564  0.01743758  1
  F  F83  1  0.58158368  0.98163804  0.01743758  1
  F  F84  1  0.40005436  0.41841632  0.01743758  1
  F  F85  1  0.66666667  0.33333333  0.50000000  1
  F  F86  1  0.00000000  0.00000000  0.69557983  1
  F  F87  1  0.00000000  0.00000000  0.30442017  1
  Li  Li88  1  0.49387989  0.45456028  0.26288468  1
  Li  Li89  1  0.54543972  0.03931961  0.26288468  1
  Li  Li90  1  0.96068039  0.50612011  0.26288468  1
  Li  Li91  1  0.54543972  0.50612011  0.73711532  1
  Li  Li92  1  0.96068039  0.45456028  0.73711532  1
  Li  Li93  1  0.49387989  0.03931961  0.73711532  1
  Li  Li94  1  0.77789841  0.64400941  0.30326490  1
  Li  Li95  1  0.35599059  0.13388901  0.30326490  1
  Li  Li96  1  0.86611099  0.22210159  0.30326490  1
  Li  Li97  1  0.35599059  0.22210159  0.69673510  1
  Li  Li98  1  0.86611099  0.64400941  0.69673510  1
  Li  Li99  1  0.77789841  0.13388901  0.69673510  1
  Li  Li100  1  0.16549499  0.83450501  0.50000000  1
  Li  Li101  1  0.16549499  0.33098997  0.50000000  1
  Li  Li102  1  0.66901003  0.83450501  0.50000000  1
  Li  Li103  1  0.66666667  0.33333333  0.00000000  1
