# generated using pymatgen
data_LiF
_symmetry_space_group_name_H-M   'P 1'
_cell_length_a   7.10976530
_cell_length_b   7.10976530
_cell_length_c   14.14849900
_cell_angle_alpha   90.00000000
_cell_angle_beta   90.00000000
_cell_angle_gamma   120.00000000
_symmetry_Int_Tables_number   1
_chemical_formula_structural   LiF
_chemical_formula_sum   'Li28 F28'
_cell_volume   619.37194470
_cell_formula_units_Z   28
loop_
 _symmetry_equiv_pos_site_id
 _symmetry_equiv_pos_as_xyz
  1  'x, y, z'
loop_
 _atom_site_type_symbol
 _atom_site_label
 _atom_site_symmetry_multiplicity
 _atom_site_fract_x
 _atom_site_fract_y
 _atom_site_fract_z
 _atom_site_occupancy
  F  F0  1  0.16687747  0.96349203  0.30748825  1
  F  F1  1  -0.96349203  -0.79661456  0.30748825  1
  F  F2  1  0.79661456  -0.16687747  0.30748825  1
  F  F3  1  -0.16687747  -0.96349203  0.80748825  1
  F  F4  1  0.96349203  0.79661456  0.80748825  1
  F  F5  1  -0.79661456  0.16687747  0.80748825  1
  F  F6  1  -0.16687747  -0.96349203  -0.30748825  1
  F  F7  1  0.96349203  0.79661456  -0.30748825  1
  F  F8  1  -0.79661456  0.16687747  -0.30748825  1
  F  F9  1  0.16687747  0.96349203  0.19251175  1
  F  F10  1  -0.96349203  -0.79661456  0.19251175  1
  F  F11  1  0.79661456  -0.16687747  0.19251175  1
  F  F12  1  0.07539119  0.50166603  0.66429616  1
  F  F13  1  0.49833397  0.57372516  0.66429616  1
  F  F14  1  0.42627484  0.92460881  0.66429616  1
  F  F15  1  0.92460881  0.49833397  0.16429616  1
  F  F16  1  0.50166603  0.42627484  0.16429616  1
  F  F17  1  0.57372516  0.07539119  0.16429616  1
  F  F18  1  0.92460881  0.49833397  0.33570384  1
  F  F19  1  0.50166603  0.42627484  0.33570384  1
  F  F20  1  0.57372516  0.07539119  0.33570384  1
  F  F21  1  0.07539119  0.50166603  0.83570384  1
  F  F22  1  0.49833397  0.57372516  0.83570384  1
  F  F23  1  0.42627484  0.92460881  0.83570384  1
  F  F24  1  0.00000000  0.00000000  0.25000000  1
  F  F25  1  0.00000000  0.00000000  0.75000000  1
  F  F26  1  0.66666667  0.33333333  0.25000000  1
  F  F27  1  0.33333333  0.66666667  0.75000000  1
  Li  Li28  1  0.65085697  0.20947277  0.63962582  1
  Li  Li29  1  0.79052723  0.44138420  0.63962582  1
  Li  Li30  1  0.55861580  0.34914303  0.63962582  1
  Li  Li31  1  0.34914303  0.79052723  0.13962582  1
  Li  Li32  1  0.20947277  0.55861580  0.13962582  1
  Li  Li33  1  0.44138420  0.65085697  0.13962582  1
  Li  Li34  1  0.34914303  0.79052723  0.36037418  1
  Li  Li35  1  0.20947277  0.55861580  0.36037418  1
  Li  Li36  1  0.44138420  0.65085697  0.36037418  1
  Li  Li37  1  0.65085697  0.20947277  0.86037418  1
  Li  Li38  1  0.79052723  0.44138420  0.86037418  1
  Li  Li39  1  0.55861580  0.34914303  0.86037418  1
  Li  Li40  1  0.33333333  0.66666667  0.43332086  1
  Li  Li41  1  0.66666667  0.33333333  0.93332086  1
  Li  Li42  1  0.66666667  0.33333333  0.56667914  1
  Li  Li43  1  0.33333333  0.66666667  0.06667914  1
  Li  Li44  1  0.88526191  0.53952317  0.25000000  1
  Li  Li45  1  0.46047683  0.34573874  0.25000000  1
  Li  Li46  1  0.65426126  0.11473809  0.25000000  1
  Li  Li47  1  0.11473809  0.46047683  0.75000000  1
  Li  Li48  1  0.53952317  0.65426126  0.75000000  1
  Li  Li49  1  0.34573874  0.88526191  0.75000000  1
  Li  Li50  1  0.41062676  0.80332172  0.25000000  1
  Li  Li51  1  0.19667828  0.60730503  0.25000000  1
  Li  Li52  1  0.39269497  0.58937324  0.25000000  1
  Li  Li53  1  0.58937324  0.19667828  0.75000000  1
  Li  Li54  1  0.80332172  0.39269497  0.75000000  1
  Li  Li55  1  0.60730503  0.41062676  0.75000000  1
