# generated using pymatgen
data_LiF
_symmetry_space_group_name_H-M   'P 1'
_cell_length_a   11.86970322
_cell_length_b   7.98112429
_cell_length_c   3.84615801
_cell_angle_alpha   90.00000000
_cell_angle_beta   90.00000000
_cell_angle_gamma   90.00000000
_symmetry_Int_Tables_number   1
_chemical_formula_structural   LiF
_chemical_formula_sum   'Li18 F18'
_cell_volume   364.36030487
_cell_formula_units_Z   18
loop_
 _symmetry_equiv_pos_site_id
 _symmetry_equiv_pos_as_xyz
  1  'x, y, z'
loop_
 _atom_site_type_symbol
 _atom_site_label
 _atom_site_symmetry_multiplicity
 _atom_site_fract_x
 _atom_site_fract_y
 _atom_site_fract_z
 _atom_site_occupancy
  F  F0  1  0.92319541  0.11187816  0.31973447  1
  F  F1  1  -0.92319541  -0.11187816  0.31973447  1
  F  F2  1  -0.42319541  0.61187816  -0.31973447  1
  F  F3  1  1.42319541  0.38812184  -0.31973447  1
  F  F4  1  -0.92319541  -0.11187816  -0.31973447  1
  F  F5  1  0.92319541  0.11187816  -0.31973447  1
  F  F6  1  1.42319541  0.38812184  0.31973447  1
  F  F7  1  -0.42319541  0.61187816  0.31973447  1
  F  F8  1  0.00000000  0.00000000  0.50000000  1
  F  F9  1  0.50000000  0.50000000  0.50000000  1
  F  F10  1  0.00000000  0.00000000  0.00000000  1
  F  F11  1  0.50000000  0.50000000  0.00000000  1
  F  F12  1  0.34782175  0.74764493  0.00000000  1
  F  F13  1  0.65217825  0.25235507  0.00000000  1
  F  F14  1  0.15217825  0.24764493  0.00000000  1
  F  F15  1  0.84782175  0.75235507  0.00000000  1
  F  F16  1  0.00000000  0.50000000  0.00000000  1
  F  F17  1  0.50000000  0.00000000  0.00000000  1
  Li  Li18  1  0.91445726  0.75681137  0.50000000  1
  Li  Li19  1  0.08554274  0.24318863  0.50000000  1
  Li  Li20  1  0.58554274  0.25681137  0.50000000  1
  Li  Li21  1  0.41445726  0.74318863  0.50000000  1
  Li  Li22  1  0.28470367  0.14378993  0.00000000  1
  Li  Li23  1  0.71529633  0.85621007  0.00000000  1
  Li  Li24  1  0.21529633  0.64378993  0.00000000  1
  Li  Li25  1  0.78470367  0.35621007  -0.00000000  1
  Li  Li26  1  0.56812393  0.80055341  0.70414561  1
  Li  Li27  1  0.43187607  0.19944659  0.70414561  1
  Li  Li28  1  0.93187607  0.30055341  0.29585439  1
  Li  Li29  1  0.06812393  0.69944659  0.29585439  1
  Li  Li30  1  0.43187607  0.19944659  0.29585439  1
  Li  Li31  1  0.56812393  0.80055341  0.29585439  1
  Li  Li32  1  0.06812393  0.69944659  0.70414561  1
  Li  Li33  1  0.93187607  0.30055341  0.70414561  1
  Li  Li34  1  0.00000000  0.50000000  0.50000000  1
  Li  Li35  1  0.50000000  0.00000000  0.50000000  1
