# generated using pymatgen
data_LiF
_symmetry_space_group_name_H-M   'P 1'
_cell_length_a   21.52300627
_cell_length_b   12.16065662
_cell_length_c   7.40824251
_cell_angle_alpha   90.00000000
_cell_angle_beta   90.00000000
_cell_angle_gamma   90.00000000
_symmetry_Int_Tables_number   1
_chemical_formula_structural   LiF
_chemical_formula_sum   'Li60 F60'
_cell_volume   1938.98811922
_cell_formula_units_Z   60
loop_
 _symmetry_equiv_pos_site_id
 _symmetry_equiv_pos_as_xyz
  1  'x, y, z'
loop_
 _atom_site_type_symbol
 _atom_site_label
 _atom_site_symmetry_multiplicity
 _atom_site_fract_x
 _atom_site_fract_y
 _atom_site_fract_z
 _atom_site_occupancy
  F  F0  1  0.09827230  0.46619072  0.42068357  1
  F  F1  1  0.40172770  0.53380928  0.92068357  1
  F  F2  1  0.90172770  0.96619072  0.57931643  1
  F  F3  1  0.59827230  0.03380928  0.07931643  1
  F  F4  1  0.90172770  0.53380928  0.57931643  1
  F  F5  1  0.59827230  0.46619072  0.07931643  1
  F  F6  1  0.09827230  0.03380928  0.42068357  1
  F  F7  1  0.40172770  0.96619072  0.92068357  1
  F  F8  1  0.11677291  0.18363174  0.30624147  1
  F  F9  1  0.38322709  0.81636826  0.80624147  1
  F  F10  1  0.88322709  0.68363174  0.69375853  1
  F  F11  1  0.61677291  0.31636826  0.19375853  1
  F  F12  1  0.88322709  0.81636826  0.69375853  1
  F  F13  1  0.61677291  0.18363174  0.19375853  1
  F  F14  1  0.11677291  0.31636826  0.30624147  1
  F  F15  1  0.38322709  0.68363174  0.80624147  1
  F  F16  1  0.73818923  0.36416921  0.22174569  1
  F  F17  1  0.76181077  0.63583079  0.72174569  1
  F  F18  1  0.26181077  0.86416921  0.77825431  1
  F  F19  1  0.23818923  0.13583079  0.27825431  1
  F  F20  1  0.26181077  0.63583079  0.77825431  1
  F  F21  1  0.23818923  0.36416921  0.27825431  1
  F  F22  1  0.73818923  0.13583079  0.22174569  1
  F  F23  1  0.76181077  0.86416921  0.72174569  1
  F  F24  1  0.95230163  0.15492370  0.87990361  1
  F  F25  1  0.54769837  0.84507630  0.37990361  1
  F  F26  1  0.04769837  0.65492370  0.12009639  1
  F  F27  1  0.45230163  0.34507630  0.62009639  1
  F  F28  1  0.04769837  0.84507630  0.12009639  1
  F  F29  1  0.45230163  0.15492370  0.62009639  1
  F  F30  1  0.95230163  0.34507630  0.87990361  1
  F  F31  1  0.54769837  0.65492370  0.37990361  1
  F  F32  1  0.65220320  0.06783912  0.17316544  1
  F  F33  1  0.84779680  0.93216088  0.67316544  1
  F  F34  1  0.34779680  0.56783912  0.82683456  1
  F  F35  1  0.15220320  0.43216088  0.32683456  1
  F  F36  1  0.34779680  0.93216088  0.82683456  1
  F  F37  1  0.15220320  0.06783912  0.32683456  1
  F  F38  1  0.65220320  0.43216088  0.17316544  1
  F  F39  1  0.84779680  0.56783912  0.67316544  1
  F  F40  1  0.42707423  0.10291312  0.85939220  1
  F  F41  1  0.07292577  0.89708688  0.35939220  1
  F  F42  1  0.57292577  0.60291312  0.14060780  1
  F  F43  1  0.92707423  0.39708688  0.64060780  1
  F  F44  1  0.57292577  0.89708688  0.14060780  1
  F  F45  1  0.92707423  0.10291312  0.64060780  1
  F  F46  1  0.42707423  0.39708688  0.85939220  1
  F  F47  1  0.07292577  0.60291312  0.35939220  1
  F  F48  1  0.01145666  0.25000000  0.29976315  1
  F  F49  1  0.48854334  0.75000000  0.79976315  1
  F  F50  1  0.98854334  0.75000000  0.70023685  1
  F  F51  1  0.51145666  0.25000000  0.20023685  1
  F  F52  1  0.53332025  0.02967746  0.89727342  1
  F  F53  1  0.96667975  0.97032254  0.39727342  1
  F  F54  1  0.46667975  0.52967746  0.10272658  1
  F  F55  1  0.03332025  0.47032254  0.60272658  1
  F  F56  1  0.46667975  0.97032254  0.10272658  1
  F  F57  1  0.03332025  0.02967746  0.60272658  1
  F  F58  1  0.53332025  0.47032254  0.89727342  1
  F  F59  1  0.96667975  0.52967746  0.39727342  1
  Li  Li60  1  0.00000000  0.00000000  0.50000000  1
  Li  Li61  1  0.50000000  0.00000000  0.00000000  1
  Li  Li62  1  0.00000000  0.50000000  0.50000000  1
  Li  Li63  1  0.50000000  0.50000000  0.00000000  1
  Li  Li64  1  0.66831009  0.47563923  0.04005540  1
  Li  Li65  1  -0.16831009  -0.47563923  0.54005540  1
  Li  Li66  1  -0.66831009  0.97563923  -0.04005540  1
  Li  Li67  1  1.16831009  0.02436077  0.45994460  1
  Li  Li68  1  -0.66831009  -0.47563923  -0.04005540  1
  Li  Li69  1  1.16831009  0.47563923  0.45994460  1
  Li  Li70  1  0.66831009  0.02436077  0.04005540  1
  Li  Li71  1  -0.16831009  0.97563923  0.54005540  1
  Li  Li72  1  0.90567216  0.25000000  0.11700628  1
  Li  Li73  1  0.59432784  0.75000000  0.61700628  1
  Li  Li74  1  0.09432784  0.75000000  0.88299372  1
  Li  Li75  1  0.40567216  0.25000000  0.38299372  1
  Li  Li76  1  0.77690744  0.37427313  0.00455257  1
  Li  Li77  1  0.72309256  0.62572687  0.50455257  1
  Li  Li78  1  0.22309256  0.87427313  0.99544743  1
  Li  Li79  1  0.27690744  0.12572687  0.49544743  1
  Li  Li80  1  0.22309256  0.62572687  0.99544743  1
  Li  Li81  1  0.27690744  0.37427313  0.49544743  1
  Li  Li82  1  0.77690744  0.12572687  0.00455257  1
  Li  Li83  1  0.72309256  0.87427313  0.50455257  1
  Li  Li84  1  0.89014419  0.86536608  0.11993742  1
  Li  Li85  1  0.60985581  0.13463392  0.61993742  1
  Li  Li86  1  0.10985581  0.36536608  0.88006258  1
  Li  Li87  1  0.39014419  0.63463392  0.38006258  1
  Li  Li88  1  0.10985581  0.13463392  0.88006258  1
  Li  Li89  1  0.39014419  0.86536608  0.38006258  1
  Li  Li90  1  0.89014419  0.63463392  0.11993742  1
  Li  Li91  1  0.60985581  0.36536608  0.61993742  1
  Li  Li92  1  0.31901397  0.00271214  0.33005935  1
  Li  Li93  1  0.18098603  0.99728786  0.83005935  1
  Li  Li94  1  0.68098603  0.50271214  0.66994065  1
  Li  Li95  1  0.81901397  0.49728786  0.16994065  1
  Li  Li96  1  0.68098603  0.99728786  0.66994065  1
  Li  Li97  1  0.81901397  0.00271214  0.16994065  1
  Li  Li98  1  0.31901397  0.49728786  0.33005935  1
  Li  Li99  1  0.18098603  0.50271214  0.83005935  1
  Li  Li100  1  0.59507381  0.25000000  0.79007985  1
  Li  Li101  1  0.90492619  0.75000000  0.29007985  1
  Li  Li102  1  0.40492619  0.75000000  0.20992015  1
  Li  Li103  1  0.09507381  0.25000000  0.70992015  1
  Li  Li104  1  0.16072008  0.25000000  0.79174906  1
  Li  Li105  1  0.33927992  0.75000000  0.29174906  1
  Li  Li106  1  0.83927992  0.75000000  0.20825094  1
  Li  Li107  1  0.66072008  0.25000000  0.70825094  1
  Li  Li108  1  0.01583539  0.60687490  0.43965854  1
  Li  Li109  1  0.48416461  0.39312510  0.93965854  1
  Li  Li110  1  0.98416461  0.10687490  0.56034146  1
  Li  Li111  1  0.51583539  0.89312510  0.06034146  1
  Li  Li112  1  0.98416461  0.39312510  0.56034146  1
  Li  Li113  1  0.51583539  0.60687490  0.06034146  1
  Li  Li114  1  0.01583539  0.89312510  0.43965854  1
  Li  Li115  1  0.48416461  0.10687490  0.93965854  1
  Li  Li116  1  0.00000000  0.00000000  0.00000000  1
  Li  Li117  1  0.50000000  0.00000000  0.50000000  1
  Li  Li118  1  0.00000000  0.50000000  0.00000000  1
  Li  Li119  1  0.50000000  0.50000000  0.50000000  1
