# generated using pymatgen
data_Li2Si4Te3F12
_symmetry_space_group_name_H-M   'P 1'
_cell_length_a   7.56202676
_cell_length_b   13.22375455
_cell_length_c   12.99443719
_cell_angle_alpha   90.00000000
_cell_angle_beta   90.00000000
_cell_angle_gamma   90.00000000
_symmetry_Int_Tables_number   1
_chemical_formula_structural   Li2Si4Te3F12
_chemical_formula_sum   'Li8 Si16 Te12 F48'
_cell_volume   1299.42274263
_cell_formula_units_Z   4
loop_
 _symmetry_equiv_pos_site_id
 _symmetry_equiv_pos_as_xyz
  1  'x, y, z'
loop_
 _atom_site_type_symbol
 _atom_site_label
 _atom_site_symmetry_multiplicity
 _atom_site_fract_x
 _atom_site_fract_y
 _atom_site_fract_z
 _atom_site_occupancy
  F  F0  1  0.65759487  0.68052672  0.28449923  1
  F  F1  1  -0.65759487  -0.68052672  0.28449923  1
  F  F2  1  -0.15759487  1.18052672  -0.28449923  1
  F  F3  1  1.15759487  -0.18052672  -0.28449923  1
  F  F4  1  -0.65759487  -0.68052672  -0.28449923  1
  F  F5  1  0.65759487  0.68052672  -0.28449923  1
  F  F6  1  1.15759487  -0.18052672  0.28449923  1
  F  F7  1  -0.15759487  1.18052672  0.28449923  1
  F  F8  1  0.60617251  0.70941444  0.50000000  1
  F  F9  1  0.39382749  0.29058556  0.50000000  1
  F  F10  1  0.89382749  0.20941444  0.50000000  1
  F  F11  1  0.10617251  0.79058556  0.50000000  1
  F  F12  1  0.72055849  0.03222563  0.40931065  1
  F  F13  1  0.27944151  0.96777437  0.40931065  1
  F  F14  1  0.77944151  0.53222563  0.59068935  1
  F  F15  1  0.22055849  0.46777437  0.59068935  1
  F  F16  1  0.27944151  0.96777437  0.59068935  1
  F  F17  1  0.72055849  0.03222563  0.59068935  1
  F  F18  1  0.22055849  0.46777437  0.40931065  1
  F  F19  1  0.77944151  0.53222563  0.40931065  1
  F  F20  1  0.64659161  0.03329312  0.05589759  1
  F  F21  1  0.35340839  0.96670688  0.05589759  1
  F  F22  1  0.85340839  0.53329312  0.94410241  1
  F  F23  1  0.14659161  0.46670688  0.94410241  1
  F  F24  1  0.35340839  0.96670688  0.94410241  1
  F  F25  1  0.64659161  0.03329312  0.94410241  1
  F  F26  1  0.14659161  0.46670688  0.05589759  1
  F  F27  1  0.85340839  0.53329312  0.05589759  1
  F  F28  1  0.35277803  0.41425513  0.89852093  1
  F  F29  1  0.64722197  0.58574487  0.89852093  1
  F  F30  1  0.14722197  0.91425513  0.10147907  1
  F  F31  1  0.85277803  0.08574487  0.10147907  1
  F  F32  1  0.64722197  0.58574487  0.10147907  1
  F  F33  1  0.35277803  0.41425513  0.10147907  1
  F  F34  1  0.85277803  0.08574487  0.89852093  1
  F  F35  1  0.14722197  0.91425513  0.89852093  1
  F  F36  1  0.52878224  0.94657227  0.74616852  1
  F  F37  1  0.47121776  0.05342773  0.74616852  1
  F  F38  1  0.97121776  0.44657227  0.25383148  1
  F  F39  1  0.02878224  0.55342773  0.25383148  1
  F  F40  1  0.47121776  0.05342773  0.25383148  1
  F  F41  1  0.52878224  0.94657227  0.25383148  1
  F  F42  1  0.02878224  0.55342773  0.74616852  1
  F  F43  1  0.97121776  0.44657227  0.74616852  1
  F  F44  1  0.00000000  0.50000000  0.62640688  1
  F  F45  1  0.50000000  -0.00000000  0.37359312  1
  F  F46  1  0.00000000  0.50000000  0.37359312  1
  F  F47  1  0.50000000  -0.00000000  0.62640688  1
  Li  Li48  1  0.00000000  0.00000000  0.70455390  1
  Li  Li49  1  0.50000000  0.50000000  0.29544610  1
  Li  Li50  1  0.00000000  0.00000000  0.29544610  1
  Li  Li51  1  0.50000000  0.50000000  0.70455390  1
  Li  Li52  1  0.00000000  0.50000000  0.13317831  1
  Li  Li53  1  0.50000000  -0.00000000  0.86682169  1
  Li  Li54  1  0.00000000  0.50000000  0.86682169  1
  Li  Li55  1  0.50000000  -0.00000000  0.13317831  1
  Si  Si56  1  0.53150510  0.12512507  0.32022076  1
  Si  Si57  1  0.46849490  0.87487493  0.32022076  1
  Si  Si58  1  0.96849490  0.62512507  0.67977924  1
  Si  Si59  1  0.03150510  0.37487493  0.67977924  1
  Si  Si60  1  0.46849490  0.87487493  0.67977924  1
  Si  Si61  1  0.53150510  0.12512507  0.67977924  1
  Si  Si62  1  0.03150510  0.37487493  0.32022076  1
  Si  Si63  1  0.96849490  0.62512507  0.32022076  1
  Si  Si64  1  0.62561041  0.21845859  0.58056911  1
  Si  Si65  1  0.37438959  0.78154141  0.58056911  1
  Si  Si66  1  0.87438959  0.71845859  0.41943089  1
  Si  Si67  1  0.12561041  0.28154141  0.41943089  1
  Si  Si68  1  0.37438959  0.78154141  0.41943089  1
  Si  Si69  1  0.62561041  0.21845859  0.41943089  1
  Si  Si70  1  0.12561041  0.28154141  0.58056911  1
  Si  Si71  1  0.87438959  0.71845859  0.58056911  1
  Te  Te72  1  0.92582852  0.89791265  0.50000000  1
  Te  Te73  1  0.07417148  0.10208735  0.50000000  1
  Te  Te74  1  0.57417148  0.39791265  0.50000000  1
  Te  Te75  1  0.42582852  0.60208735  0.50000000  1
  Te  Te76  1  0.81267079  0.02204043  0.00000000  1
  Te  Te77  1  0.18732921  0.97795957  0.00000000  1
  Te  Te78  1  0.68732921  0.52204043  0.00000000  1
  Te  Te79  1  0.31267079  0.47795957  0.00000000  1
  Te  Te80  1  0.00000000  0.50000000  -0.00000000  1
  Te  Te81  1  0.50000000  -0.00000000  0.00000000  1
  Te  Te82  1  0.00000000  0.50000000  0.50000000  1
  Te  Te83  1  0.50000000  -0.00000000  0.50000000  1
