# generated using pymatgen
data_LiF
_symmetry_space_group_name_H-M   'P 1'
_cell_length_a   11.72140294
_cell_length_b   11.72140294
_cell_length_c   5.72594490
_cell_angle_alpha   90.00000000
_cell_angle_beta   90.00000000
_cell_angle_gamma   120.00000000
_symmetry_Int_Tables_number   1
_chemical_formula_structural   LiF
_chemical_formula_sum   'Li37 F37'
_cell_volume   681.29780071
_cell_formula_units_Z   37
loop_
 _symmetry_equiv_pos_site_id
 _symmetry_equiv_pos_as_xyz
  1  'x, y, z'
loop_
 _atom_site_type_symbol
 _atom_site_label
 _atom_site_symmetry_multiplicity
 _atom_site_fract_x
 _atom_site_fract_y
 _atom_site_fract_z
 _atom_site_occupancy
  F  F0  1  0.35774728  0.48561845  0.05183914  1
  F  F1  1  0.51438155  0.87212883  0.05183914  1
  F  F2  1  0.12787117  0.64225272  0.05183914  1
  F  F3  1  0.51438155  0.64225272  0.94816086  1
  F  F4  1  0.12787117  0.48561845  0.94816086  1
  F  F5  1  0.35774728  0.87212883  0.94816086  1
  F  F6  1  0.66666667  0.33333333  0.50000000  1
  F  F7  1  0.02312311  0.77441995  0.93802251  1
  F  F8  1  0.22558005  0.24870316  0.93802251  1
  F  F9  1  0.75129684  0.97687689  0.93802251  1
  F  F10  1  0.22558005  0.97687689  0.06197749  1
  F  F11  1  0.75129684  0.77441995  0.06197749  1
  F  F12  1  0.02312311  0.24870316  0.06197749  1
  F  F13  1  0.19280448  0.80719552  0.50000000  1
  F  F14  1  0.19280448  0.38560897  0.50000000  1
  F  F15  1  0.61439103  0.80719552  0.50000000  1
  F  F16  1  0.00000000  0.00000000  0.92708236  1
  F  F17  1  0.00000000  0.00000000  0.07291764  1
  F  F18  1  0.18191716  0.06128922  0.61330058  1
  F  F19  1  0.93871078  0.12062793  0.61330058  1
  F  F20  1  0.87937207  0.81808284  0.61330058  1
  F  F21  1  0.93871078  0.81808284  0.38669942  1
  F  F22  1  0.87937207  0.06128922  0.38669942  1
  F  F23  1  0.18191716  0.12062793  0.38669942  1
  F  F24  1  0.24658696  0.09334549  0.11937602  1
  F  F25  1  0.90665451  0.15324147  0.11937602  1
  F  F26  1  0.84675853  0.75341304  0.11937602  1
  F  F27  1  0.90665451  0.75341304  0.88062398  1
  F  F28  1  0.84675853  0.09334549  0.88062398  1
  F  F29  1  0.24658696  0.15324147  0.88062398  1
  F  F30  1  0.27331852  0.72668148  0.50000000  1
  F  F31  1  0.27331852  0.54663704  0.50000000  1
  F  F32  1  0.45336296  0.72668148  0.50000000  1
  F  F33  1  0.07026581  0.92973419  0.50000000  1
  F  F34  1  0.07026581  0.14053162  0.50000000  1
  F  F35  1  0.85946838  0.92973419  0.50000000  1
  F  F36  1  0.66666667  0.33333333  0.00000000  1
  Li  Li37  1  0.33462628  0.42012016  0.27313705  1
  Li  Li38  1  -0.42012016  -0.08549388  0.27313705  1
  Li  Li39  1  0.08549388  -0.33462628  0.27313705  1
  Li  Li40  1  -0.42012016  -0.33462628  -0.27313705  1
  Li  Li41  1  0.08549388  0.42012016  -0.27313705  1
  Li  Li42  1  0.33462628  -0.08549388  -0.27313705  1
  Li  Li43  1  0.60976853  0.39023147  0.50000000  1
  Li  Li44  1  0.60976853  0.21953706  0.50000000  1
  Li  Li45  1  0.78046294  0.39023147  0.50000000  1
  Li  Li46  1  0.33333333  0.66666667  0.00000000  1
  Li  Li47  1  0.16240315  0.83759685  0.00000000  1
  Li  Li48  1  0.16240315  0.32480630  0.00000000  1
  Li  Li49  1  0.67519370  0.83759685  0.00000000  1
  Li  Li50  1  0.74608846  0.03531718  0.55999902  1
  Li  Li51  1  0.96468282  0.71077128  0.55999902  1
  Li  Li52  1  0.28922872  0.25391154  0.55999902  1
  Li  Li53  1  0.96468282  0.25391154  0.44000098  1
  Li  Li54  1  0.28922872  0.03531718  0.44000098  1
  Li  Li55  1  0.74608846  0.71077128  0.44000098  1
  Li  Li56  1  0.76768901  0.68123571  0.69205166  1
  Li  Li57  1  0.31876429  0.08645330  0.69205166  1
  Li  Li58  1  0.91354670  0.23231099  0.69205166  1
  Li  Li59  1  0.31876429  0.23231099  0.30794834  1
  Li  Li60  1  0.91354670  0.68123571  0.30794834  1
  Li  Li61  1  0.76768901  0.08645330  0.30794834  1
  Li  Li62  1  0.84248774  0.52156762  0.47262074  1
  Li  Li63  1  0.47843238  0.32092012  0.47262074  1
  Li  Li64  1  0.67907988  0.15751226  0.47262074  1
  Li  Li65  1  0.47843238  0.15751226  0.52737926  1
  Li  Li66  1  0.67907988  0.52156762  0.52737926  1
  Li  Li67  1  0.84248774  0.32092012  0.52737926  1
  Li  Li68  1  0.20421033  0.33630871  0.23778548  1
  Li  Li69  1  0.66369129  0.86790161  0.23778548  1
  Li  Li70  1  0.13209839  0.79578967  0.23778548  1
  Li  Li71  1  0.66369129  0.79578967  0.76221452  1
  Li  Li72  1  0.13209839  0.33630871  0.76221452  1
  Li  Li73  1  0.20421033  0.86790161  0.76221452  1
