# generated using pymatgen
data_LiF
_symmetry_space_group_name_H-M   'P 1'
_cell_length_a   8.80732322
_cell_length_b   9.29219564
_cell_length_c   11.28587308
_cell_angle_alpha   90.00000000
_cell_angle_beta   90.00000000
_cell_angle_gamma   90.00000000
_symmetry_Int_Tables_number   1
_chemical_formula_structural   LiF
_chemical_formula_sum   'Li24 F24'
_cell_volume   923.62874793
_cell_formula_units_Z   24
loop_
 _symmetry_equiv_pos_site_id
 _symmetry_equiv_pos_as_xyz
  1  'x, y, z'
loop_
 _atom_site_type_symbol
 _atom_site_label
 _atom_site_symmetry_multiplicity
 _atom_site_fract_x
 _atom_site_fract_y
 _atom_site_fract_z
 _atom_site_occupancy
  F  F0  1  0.93207279  0.25000000  0.11863236  1
  F  F1  1  0.56792721  0.75000000  0.61863236  1
  F  F2  1  0.06792721  0.75000000  0.88136764  1
  F  F3  1  0.43207279  0.25000000  0.38136764  1
  F  F4  1  0.64168766  0.00286808  0.52893559  1
  F  F5  1  0.85831234  0.99713192  0.02893559  1
  F  F6  1  0.35831234  0.50286808  0.47106441  1
  F  F7  1  0.14168766  0.49713192  0.97106441  1
  F  F8  1  0.35831234  0.99713192  0.47106441  1
  F  F9  1  0.14168766  0.00286808  0.97106441  1
  F  F10  1  0.64168766  0.49713192  0.52893559  1
  F  F11  1  0.85831234  0.50286808  0.02893559  1
  F  F12  1  0.56228211  0.71862167  0.38220835  1
  F  F13  1  0.93771789  0.28137833  0.88220835  1
  F  F14  1  0.43771789  0.21862167  0.61779165  1
  F  F15  1  0.06228211  0.78137833  0.11779165  1
  F  F16  1  0.43771789  0.28137833  0.61779165  1
  F  F17  1  0.06228211  0.71862167  0.11779165  1
  F  F18  1  0.56228211  0.78137833  0.38220835  1
  F  F19  1  0.93771789  0.21862167  0.88220835  1
  F  F20  1  0.00000000  0.00000000  0.50000000  1
  F  F21  1  0.50000000  0.00000000  0.00000000  1
  F  F22  1  0.00000000  0.50000000  0.50000000  1
  F  F23  1  0.50000000  0.50000000  -0.00000000  1
  Li  Li24  1  0.97669054  0.34131450  0.44783160  1
  Li  Li25  1  -0.47669054  -0.34131450  0.94783160  1
  Li  Li26  1  -0.97669054  0.84131450  -0.44783160  1
  Li  Li27  1  1.47669054  0.15868550  0.05216840  1
  Li  Li28  1  -0.97669054  -0.34131450  -0.44783160  1
  Li  Li29  1  1.47669054  0.34131450  0.05216840  1
  Li  Li30  1  0.97669054  0.15868550  0.44783160  1
  Li  Li31  1  -0.47669054  0.84131450  0.94783160  1
  Li  Li32  1  0.32391133  0.47749251  0.92790193  1
  Li  Li33  1  0.17608867  0.52250749  0.42790193  1
  Li  Li34  1  0.67608867  0.97749251  0.07209807  1
  Li  Li35  1  0.82391133  0.02250749  0.57209807  1
  Li  Li36  1  0.67608867  0.52250749  0.07209807  1
  Li  Li37  1  0.82391133  0.47749251  0.57209807  1
  Li  Li38  1  0.32391133  0.02250749  0.92790193  1
  Li  Li39  1  0.17608867  0.97749251  0.42790193  1
  Li  Li40  1  0.64519409  0.25000000  0.39707283  1
  Li  Li41  1  0.85480591  0.75000000  0.89707283  1
  Li  Li42  1  0.35480591  0.75000000  0.60292717  1
  Li  Li43  1  0.14519409  0.25000000  0.10292717  1
  Li  Li44  1  0.00000000  0.00000000  0.00000000  1
  Li  Li45  1  0.50000000  0.00000000  0.50000000  1
  Li  Li46  1  0.00000000  0.50000000  0.00000000  1
  Li  Li47  1  0.50000000  0.50000000  0.50000000  1
