# generated using pymatgen
data_LiF
_symmetry_space_group_name_H-M   'P 1'
_cell_length_a   10.82196093
_cell_length_b   5.46732538
_cell_length_c   11.60362218
_cell_angle_alpha   90.00000000
_cell_angle_beta   90.00000000
_cell_angle_gamma   90.00000000
_symmetry_Int_Tables_number   1
_chemical_formula_structural   LiF
_chemical_formula_sum   'Li28 F28'
_cell_volume   686.55362224
_cell_formula_units_Z   28
loop_
 _symmetry_equiv_pos_site_id
 _symmetry_equiv_pos_as_xyz
  1  'x, y, z'
loop_
 _atom_site_type_symbol
 _atom_site_label
 _atom_site_symmetry_multiplicity
 _atom_site_fract_x
 _atom_site_fract_y
 _atom_site_fract_z
 _atom_site_occupancy
  F  F0  1  0.91679629  0.25000000  0.65876174  1
  F  F1  1  0.58320371  0.75000000  0.15876174  1
  F  F2  1  0.08320371  0.75000000  0.34123826  1
  F  F3  1  0.41679629  0.25000000  0.84123826  1
  F  F4  1  0.31777681  0.25000000  0.41194754  1
  F  F5  1  0.18222319  0.75000000  0.91194754  1
  F  F6  1  0.68222319  0.75000000  0.58805246  1
  F  F7  1  0.81777681  0.25000000  0.08805246  1
  F  F8  1  0.64475535  0.43759390  0.15711895  1
  F  F9  1  0.85524465  0.56240610  0.65711895  1
  F  F10  1  0.35524465  0.93759390  0.84288105  1
  F  F11  1  0.14475535  0.06240610  0.34288105  1
  F  F12  1  0.35524465  0.56240610  0.84288105  1
  F  F13  1  0.14475535  0.43759390  0.34288105  1
  F  F14  1  0.64475535  0.06240610  0.15711895  1
  F  F15  1  0.85524465  0.93759390  0.65711895  1
  F  F16  1  0.80770826  0.83442861  0.60825423  1
  F  F17  1  0.69229174  0.16557139  0.10825423  1
  F  F18  1  0.19229174  0.33442861  0.39174577  1
  F  F19  1  0.30770826  0.66557139  0.89174577  1
  F  F20  1  0.19229174  0.16557139  0.39174577  1
  F  F21  1  0.30770826  0.83442861  0.89174577  1
  F  F22  1  0.80770826  0.66557139  0.60825423  1
  F  F23  1  0.69229174  0.33442861  0.10825423  1
  F  F24  1  0.00000000  0.00000000  0.00000000  1
  F  F25  1  0.50000000  0.00000000  0.50000000  1
  F  F26  1  0.00000000  0.50000000  0.00000000  1
  F  F27  1  0.50000000  0.50000000  0.50000000  1
  Li  Li28  1  0.52617476  0.61438440  0.25933126  1
  Li  Li29  1  -0.02617476  -0.61438440  0.75933126  1
  Li  Li30  1  -0.52617476  1.11438440  -0.25933126  1
  Li  Li31  1  1.02617476  -0.11438440  0.24066874  1
  Li  Li32  1  -0.52617476  -0.61438440  -0.25933126  1
  Li  Li33  1  1.02617476  0.61438440  0.24066874  1
  Li  Li34  1  0.52617476  -0.11438440  0.25933126  1
  Li  Li35  1  -0.02617476  1.11438440  0.75933126  1
  Li  Li36  1  0.58615543  0.56404158  0.67638343  1
  Li  Li37  1  0.91384457  0.43595842  0.17638343  1
  Li  Li38  1  0.41384457  0.06404158  0.32361657  1
  Li  Li39  1  0.08615543  0.93595842  0.82361657  1
  Li  Li40  1  0.41384457  0.43595842  0.32361657  1
  Li  Li41  1  0.08615543  0.56404158  0.82361657  1
  Li  Li42  1  0.58615543  0.93595842  0.67638343  1
  Li  Li43  1  0.91384457  0.06404158  0.17638343  1
  Li  Li44  1  0.00000000  0.00000000  0.50000000  1
  Li  Li45  1  0.50000000  0.00000000  0.00000000  1
  Li  Li46  1  0.00000000  0.50000000  0.50000000  1
  Li  Li47  1  0.50000000  0.50000000  0.00000000  1
  Li  Li48  1  0.23708416  0.57065541  0.54784173  1
  Li  Li49  1  0.26291584  0.42934459  0.04784173  1
  Li  Li50  1  0.76291584  0.07065541  0.45215827  1
  Li  Li51  1  0.73708416  0.92934459  0.95215827  1
  Li  Li52  1  0.76291584  0.42934459  0.45215827  1
  Li  Li53  1  0.73708416  0.57065541  0.95215827  1
  Li  Li54  1  0.23708416  0.92934459  0.54784173  1
  Li  Li55  1  0.26291584  0.07065541  0.04784173  1
