# generated using pymatgen
data_Li2YSb2(AsP)2
_symmetry_space_group_name_H-M   'P 1'
_cell_length_a   5.34825135
_cell_length_b   5.40201977
_cell_length_c   7.19017821
_cell_angle_alpha   94.76967999
_cell_angle_beta   100.02228314
_cell_angle_gamma   107.38369816
_symmetry_Int_Tables_number   1
_chemical_formula_structural   Li2YSb2(AsP)2
_chemical_formula_sum   'Li2 Y1 Sb2 As2 P2'
_cell_volume   193.19143733
_cell_formula_units_Z   1
loop_
 _symmetry_equiv_pos_site_id
 _symmetry_equiv_pos_as_xyz
  1  'x, y, z'
loop_
 _atom_site_type_symbol
 _atom_site_label
 _atom_site_symmetry_multiplicity
 _atom_site_fract_x
 _atom_site_fract_y
 _atom_site_fract_z
 _atom_site_occupancy
  P  P0  1  0.12500000  0.00000000  0.25000000  1
  P  P1  1  0.00000000  0.00000000  0.00000000  1
  As  As2  1  0.37500000  0.00000000  0.25000000  1
  As  As3  1  0.25000000  0.25000000  0.25000000  1
  Li  Li4  1  0.00000000  0.25000000  0.12500000  1
  Li  Li5  1  0.77416078  0.24455969  0.17417165  1
  Y  Y6  1  0.12264990  0.83192574  0.78105261  1
  Sb  Sb7  1  0.06514762  0.56064599  0.94409505  1
  Sb  Sb8  1  0.64247702  0.67137928  0.82893395  1
