# generated using pymatgen
data_LiF
_symmetry_space_group_name_H-M   'P 1'
_cell_length_a   9.71753205
_cell_length_b   9.71753205
_cell_length_c   15.91405025
_cell_angle_alpha   90.00000000
_cell_angle_beta   90.00000000
_cell_angle_gamma   120.00000000
_symmetry_Int_Tables_number   1
_chemical_formula_structural   LiF
_chemical_formula_sum   'Li66 F66'
_cell_volume   1301.43751143
_cell_formula_units_Z   66
loop_
 _symmetry_equiv_pos_site_id
 _symmetry_equiv_pos_as_xyz
  1  'x, y, z'
loop_
 _atom_site_type_symbol
 _atom_site_label
 _atom_site_symmetry_multiplicity
 _atom_site_fract_x
 _atom_site_fract_y
 _atom_site_fract_z
 _atom_site_occupancy
  F  F0  1  0.21901338  0.03894624  0.34243988  1
  F  F1  1  0.96105376  0.18006713  0.34243988  1
  F  F2  1  0.81993287  0.78098662  0.34243988  1
  F  F3  1  0.03894624  0.21901338  0.15756012  1
  F  F4  1  0.18006713  0.96105376  0.15756012  1
  F  F5  1  0.78098662  0.81993287  0.15756012  1
  F  F6  1  0.78098662  0.96105376  0.65756012  1
  F  F7  1  0.03894624  0.81993287  0.65756012  1
  F  F8  1  0.18006713  0.21901338  0.65756012  1
  F  F9  1  0.96105376  0.78098662  0.84243988  1
  F  F10  1  0.81993287  0.03894624  0.84243988  1
  F  F11  1  0.21901338  0.18006713  0.84243988  1
  F  F12  1  0.88568004  0.37227958  0.67577321  1
  F  F13  1  0.62772042  0.51340047  0.67577321  1
  F  F14  1  0.48659953  0.11431996  0.67577321  1
  F  F15  1  0.70561291  0.55234671  0.49089345  1
  F  F16  1  0.84673380  0.29438709  0.49089345  1
  F  F17  1  0.44765329  0.15326620  0.49089345  1
  F  F18  1  0.44765329  0.29438709  0.99089345  1
  F  F19  1  0.70561291  0.15326620  0.99089345  1
  F  F20  1  0.84673380  0.55234671  0.99089345  1
  F  F21  1  0.62772042  0.11431996  0.17577321  1
  F  F22  1  0.48659953  0.37227958  0.17577321  1
  F  F23  1  0.88568004  0.51340047  0.17577321  1
  F  F24  1  0.55234671  0.70561291  0.00910655  1
  F  F25  1  0.29438709  0.84673380  0.00910655  1
  F  F26  1  0.15326620  0.44765329  0.00910655  1
  F  F27  1  0.37227958  0.88568004  0.82422679  1
  F  F28  1  0.51340047  0.62772042  0.82422679  1
  F  F29  1  0.11431996  0.48659953  0.82422679  1
  F  F30  1  0.11431996  0.62772042  0.32422679  1
  F  F31  1  0.37227958  0.48659953  0.32422679  1
  F  F32  1  0.51340047  0.88568004  0.32422679  1
  F  F33  1  0.29438709  0.44765329  0.50910655  1
  F  F34  1  0.15326620  0.70561291  0.50910655  1
  F  F35  1  0.55234671  0.84673380  0.50910655  1
  F  F36  1  0.30571095  0.00000000  0.25000000  1
  F  F37  1  0.00000000  0.30571095  0.25000000  1
  F  F38  1  0.69428905  0.69428905  0.25000000  1
  F  F39  1  0.69428905  0.00000000  0.75000000  1
  F  F40  1  0.00000000  0.69428905  0.75000000  1
  F  F41  1  0.30571095  0.30571095  0.75000000  1
  F  F42  1  0.97237762  0.33333333  0.58333333  1
  F  F43  1  0.66666667  0.63904429  0.58333333  1
  F  F44  1  0.36095571  0.02762238  0.58333333  1
  F  F45  1  0.36095571  0.33333333  0.08333333  1
  F  F46  1  0.66666667  0.02762238  0.08333333  1
  F  F47  1  0.97237762  0.63904429  0.08333333  1
  F  F48  1  0.63904429  0.66666667  0.91666667  1
  F  F49  1  0.33333333  0.97237762  0.91666667  1
  F  F50  1  0.02762238  0.36095571  0.91666667  1
  F  F51  1  0.02762238  0.66666667  0.41666667  1
  F  F52  1  0.33333333  0.36095571  0.41666667  1
  F  F53  1  0.63904429  0.97237762  0.41666667  1
  F  F54  1  0.00000000  0.00000000  0.31056124  1
  F  F55  1  0.00000000  0.00000000  0.18943876  1
  F  F56  1  0.00000000  0.00000000  0.68943876  1
  F  F57  1  0.00000000  0.00000000  0.81056124  1
  F  F58  1  0.66666667  0.33333333  0.64389458  1
  F  F59  1  0.66666667  0.33333333  0.52277209  1
  F  F60  1  0.66666667  0.33333333  0.02277209  1
  F  F61  1  0.66666667  0.33333333  0.14389458  1
  F  F62  1  0.33333333  0.66666667  0.97722791  1
  F  F63  1  0.33333333  0.66666667  0.85610542  1
  F  F64  1  0.33333333  0.66666667  0.35610542  1
  F  F65  1  0.33333333  0.66666667  0.47722791  1
  Li  Li66  1  0.50049857  0.09265664  0.87451519  1
  Li  Li67  1  -0.09265664  0.40784193  0.87451519  1
  Li  Li68  1  -0.40784193  -0.50049857  0.87451519  1
  Li  Li69  1  0.09265664  0.50049857  -0.37451519  1
  Li  Li70  1  0.40784193  -0.09265664  -0.37451519  1
  Li  Li71  1  -0.50049857  -0.40784193  -0.37451519  1
  Li  Li72  1  -0.50049857  -0.09265664  -0.87451519  1
  Li  Li73  1  0.09265664  -0.40784193  -0.87451519  1
  Li  Li74  1  0.40784193  0.50049857  -0.87451519  1
  Li  Li75  1  -0.09265664  -0.50049857  1.37451519  1
  Li  Li76  1  -0.40784193  0.09265664  1.37451519  1
  Li  Li77  1  0.50049857  0.40784193  1.37451519  1
  Li  Li78  1  1.16716524  0.42598998  1.20784853  1
  Li  Li79  1  0.57401002  0.74117527  1.20784853  1
  Li  Li80  1  0.25882473  -0.16716524  1.20784853  1
  Li  Li81  1  0.75932331  0.83383191  -0.04118186  1
  Li  Li82  1  1.07450860  0.24067669  -0.04118186  1
  Li  Li83  1  0.16616809  -0.07450860  -0.04118186  1
  Li  Li84  1  0.16616809  0.24067669  -0.54118186  1
  Li  Li85  1  0.75932331  -0.07450860  -0.54118186  1
  Li  Li86  1  1.07450860  0.83383191  -0.54118186  1
  Li  Li87  1  0.57401002  -0.16716524  1.70784853  1
  Li  Li88  1  0.25882473  0.42598998  1.70784853  1
  Li  Li89  1  1.16716524  0.74117527  1.70784853  1
  Li  Li90  1  0.83383191  0.75932331  1.54118186  1
  Li  Li91  1  0.24067669  1.07450860  1.54118186  1
  Li  Li92  1  -0.07450860  0.16616809  1.54118186  1
  Li  Li93  1  0.42598998  1.16716524  0.29215147  1
  Li  Li94  1  0.74117527  0.57401002  0.29215147  1
  Li  Li95  1  -0.16716524  0.25882473  0.29215147  1
  Li  Li96  1  -0.16716524  0.57401002  -0.20784853  1
  Li  Li97  1  0.42598998  0.25882473  -0.20784853  1
  Li  Li98  1  0.74117527  1.16716524  -0.20784853  1
  Li  Li99  1  0.24067669  0.16616809  2.04118186  1
  Li  Li100  1  -0.07450860  0.75932331  2.04118186  1
  Li  Li101  1  0.83383191  1.07450860  2.04118186  1
  Li  Li102  1  0.00000000  0.00000000  0.00000000  1
  Li  Li103  1  0.00000000  0.00000000  0.50000000  1
  Li  Li104  1  0.66666667  0.33333333  0.33333333  1
  Li  Li105  1  0.66666667  0.33333333  0.83333333  1
  Li  Li106  1  0.33333333  0.66666667  0.66666667  1
  Li  Li107  1  0.33333333  0.66666667  0.16666667  1
  Li  Li108  1  0.50000000  0.00000000  0.00000000  1
  Li  Li109  1  0.00000000  0.50000000  0.00000000  1
  Li  Li110  1  0.50000000  0.50000000  0.00000000  1
  Li  Li111  1  0.00000000  0.50000000  0.50000000  1
  Li  Li112  1  0.50000000  0.00000000  0.50000000  1
  Li  Li113  1  0.50000000  0.50000000  0.50000000  1
  Li  Li114  1  0.16666667  0.33333333  0.33333333  1
  Li  Li115  1  0.66666667  0.83333333  0.33333333  1
  Li  Li116  1  0.16666667  0.83333333  0.33333333  1
  Li  Li117  1  0.66666667  0.83333333  0.83333333  1
  Li  Li118  1  0.16666667  0.33333333  0.83333333  1
  Li  Li119  1  0.16666667  0.83333333  0.83333333  1
  Li  Li120  1  0.83333333  0.66666667  0.66666667  1
  Li  Li121  1  0.33333333  0.16666667  0.66666667  1
  Li  Li122  1  0.83333333  0.16666667  0.66666667  1
  Li  Li123  1  0.33333333  0.16666667  0.16666667  1
  Li  Li124  1  0.83333333  0.66666667  0.16666667  1
  Li  Li125  1  0.83333333  0.16666667  0.16666667  1
  Li  Li126  1  0.00000000  0.00000000  0.25000000  1
  Li  Li127  1  0.00000000  0.00000000  0.75000000  1
  Li  Li128  1  0.66666667  0.33333333  0.58333333  1
  Li  Li129  1  0.66666667  0.33333333  0.08333333  1
  Li  Li130  1  0.33333333  0.66666667  0.91666667  1
  Li  Li131  1  0.33333333  0.66666667  0.41666667  1
