# generated using pymatgen
data_LiF
_symmetry_space_group_name_H-M   'P 1'
_cell_length_a   6.52283353
_cell_length_b   6.52283353
_cell_length_c   16.68774489
_cell_angle_alpha   90.00000000
_cell_angle_beta   90.00000000
_cell_angle_gamma   90.00000000
_symmetry_Int_Tables_number   1
_chemical_formula_structural   LiF
_chemical_formula_sum   'Li29 F29'
_cell_volume   710.01944358
_cell_formula_units_Z   29
loop_
 _symmetry_equiv_pos_site_id
 _symmetry_equiv_pos_as_xyz
  1  'x, y, z'
loop_
 _atom_site_type_symbol
 _atom_site_label
 _atom_site_symmetry_multiplicity
 _atom_site_fract_x
 _atom_site_fract_y
 _atom_site_fract_z
 _atom_site_occupancy
  F  F0  1  0.50000000  0.50000000  0.00000000  1
  F  F1  1  0.93681828  0.00000000  0.19291036  1
  F  F2  1  0.06318172  0.00000000  0.19291036  1
  F  F3  1  0.00000000  0.93681828  0.19291036  1
  F  F4  1  0.00000000  0.06318172  0.19291036  1
  F  F5  1  0.06318172  0.00000000  0.80708964  1
  F  F6  1  0.93681828  0.00000000  0.80708964  1
  F  F7  1  0.00000000  0.93681828  0.80708964  1
  F  F8  1  0.00000000  0.06318172  0.80708964  1
  F  F9  1  0.00000000  0.00000000  0.73771296  1
  F  F10  1  0.00000000  0.00000000  0.26228704  1
  F  F11  1  0.61589673  0.93102412  0.39083708  1
  F  F12  1  -0.61589673  -0.93102412  0.39083708  1
  F  F13  1  -0.93102412  0.61589673  0.39083708  1
  F  F14  1  0.93102412  -0.61589673  0.39083708  1
  F  F15  1  -0.61589673  0.93102412  -0.39083708  1
  F  F16  1  0.61589673  -0.93102412  -0.39083708  1
  F  F17  1  0.93102412  0.61589673  -0.39083708  1
  F  F18  1  -0.93102412  -0.61589673  -0.39083708  1
  F  F19  1  -0.61589673  -0.93102412  -0.39083708  1
  F  F20  1  0.61589673  0.93102412  -0.39083708  1
  F  F21  1  0.93102412  -0.61589673  -0.39083708  1
  F  F22  1  -0.93102412  0.61589673  -0.39083708  1
  F  F23  1  0.61589673  -0.93102412  0.39083708  1
  F  F24  1  -0.61589673  0.93102412  0.39083708  1
  F  F25  1  -0.93102412  -0.61589673  0.39083708  1
  F  F26  1  0.93102412  0.61589673  0.39083708  1
  F  F27  1  0.50000000  0.50000000  0.11659876  1
  F  F28  1  0.50000000  0.50000000  0.88340124  1
  Li  Li29  1  0.00000000  0.50000000  0.00000000  1
  Li  Li30  1  0.50000000  0.00000000  0.00000000  1
  Li  Li31  1  0.29412677  0.00000000  0.30745062  1
  Li  Li32  1  0.70587323  -0.00000000  0.30745062  1
  Li  Li33  1  0.00000000  0.29412677  0.30745062  1
  Li  Li34  1  0.00000000  0.70587323  0.30745062  1
  Li  Li35  1  0.70587323  -0.00000000  0.69254938  1
  Li  Li36  1  0.29412677  0.00000000  0.69254938  1
  Li  Li37  1  0.00000000  0.29412677  0.69254938  1
  Li  Li38  1  0.00000000  0.70587323  0.69254938  1
  Li  Li39  1  0.66692401  0.66692401  0.00000000  1
  Li  Li40  1  0.33307599  0.33307599  0.00000000  1
  Li  Li41  1  0.33307599  0.66692401  0.00000000  1
  Li  Li42  1  0.66692401  0.33307599  0.00000000  1
  Li  Li43  1  0.13964232  0.13964232  0.50000000  1
  Li  Li44  1  0.86035768  0.86035768  0.50000000  1
  Li  Li45  1  0.86035768  0.13964232  0.50000000  1
  Li  Li46  1  0.13964232  0.86035768  0.50000000  1
  Li  Li47  1  0.60275421  0.85297898  0.50000000  1
  Li  Li48  1  0.39724579  0.14702102  0.50000000  1
  Li  Li49  1  0.14702102  0.60275421  0.50000000  1
  Li  Li50  1  0.85297898  0.39724579  0.50000000  1
  Li  Li51  1  0.39724579  0.85297898  0.50000000  1
  Li  Li52  1  0.60275421  0.14702102  0.50000000  1
  Li  Li53  1  0.85297898  0.60275421  0.50000000  1
  Li  Li54  1  0.14702102  0.39724579  0.50000000  1
  Li  Li55  1  0.00000000  0.00000000  0.88487904  1
  Li  Li56  1  0.00000000  0.00000000  0.11512096  1
  Li  Li57  1  0.50000000  0.50000000  0.50000000  1
