# generated using pymatgen
data_LiYPSe
_symmetry_space_group_name_H-M   'P 1'
_cell_length_a   5.20458212
_cell_length_b   5.45540387
_cell_length_c   7.16563714
_cell_angle_alpha   94.40413355
_cell_angle_beta   99.59128726
_cell_angle_gamma   107.68965407
_symmetry_Int_Tables_number   1
_chemical_formula_structural   LiYPSe
_chemical_formula_sum   'Li2 Y2 P2 Se2'
_cell_volume   189.35868276
_cell_formula_units_Z   2
loop_
 _symmetry_equiv_pos_site_id
 _symmetry_equiv_pos_as_xyz
  1  'x, y, z'
loop_
 _atom_site_type_symbol
 _atom_site_label
 _atom_site_symmetry_multiplicity
 _atom_site_fract_x
 _atom_site_fract_y
 _atom_site_fract_z
 _atom_site_occupancy
  Se  Se0  1  0.00000000  0.00000000  0.00000000  1
  Se  Se1  1  0.33300000  0.66700000  0.25000000  1
  P  P2  1  0.66700000  0.33300000  0.50000000  1
  P  P3  1  0.00000000  0.00000000  0.75000000  1
  Li  Li4  1  0.27568451  0.19354642  0.19385253  1
  Li  Li5  1  0.11913941  0.92963650  0.89416082  1
  Y  Y6  1  0.29365487  0.18358204  0.03059064  1
  Y  Y7  1  0.95508322  0.08205646  0.59514345  1
