# generated using pymatgen
data_LiF
_symmetry_space_group_name_H-M   'P 1'
_cell_length_a   10.86385718
_cell_length_b   10.86385718
_cell_length_c   5.27425021
_cell_angle_alpha   90.00000000
_cell_angle_beta   90.00000000
_cell_angle_gamma   120.00000000
_symmetry_Int_Tables_number   1
_chemical_formula_structural   LiF
_chemical_formula_sum   'Li24 F24'
_cell_volume   539.08774002
_cell_formula_units_Z   24
loop_
 _symmetry_equiv_pos_site_id
 _symmetry_equiv_pos_as_xyz
  1  'x, y, z'
loop_
 _atom_site_type_symbol
 _atom_site_label
 _atom_site_symmetry_multiplicity
 _atom_site_fract_x
 _atom_site_fract_y
 _atom_site_fract_z
 _atom_site_occupancy
  F  F0  1  0.33333333  0.66666667  0.50000000  1
  F  F1  1  0.00000000  0.00000000  0.00000000  1
  F  F2  1  0.00000000  0.00000000  0.50000000  1
  F  F3  1  0.82102792  0.66843607  0.82953584  1
  F  F4  1  0.33156393  0.15259185  0.82953584  1
  F  F5  1  0.84740815  0.17897208  0.82953584  1
  F  F6  1  0.33156393  0.17897208  0.17046416  1
  F  F7  1  0.84740815  0.66843607  0.17046416  1
  F  F8  1  0.82102792  0.15259185  0.17046416  1
  F  F9  1  0.27267127  0.83704675  0.07471179  1
  F  F10  1  0.16295325  0.43562453  0.07471179  1
  F  F11  1  0.56437547  0.72732873  0.07471179  1
  F  F12  1  0.16295325  0.72732873  0.92528821  1
  F  F13  1  0.56437547  0.83704675  0.92528821  1
  F  F14  1  0.27267127  0.43562453  0.92528821  1
  F  F15  1  0.03096413  0.46524201  0.20218841  1
  F  F16  1  0.53475799  0.56572212  0.20218841  1
  F  F17  1  0.43427788  0.96903587  0.20218841  1
  F  F18  1  0.53475799  0.96903587  0.79781159  1
  F  F19  1  0.43427788  0.46524201  0.79781159  1
  F  F20  1  0.03096413  0.56572212  0.79781159  1
  F  F21  1  0.29474963  0.70525037  0.00000000  1
  F  F22  1  0.29474963  0.58949926  -0.00000000  1
  F  F23  1  0.41050074  0.70525037  0.00000000  1
  Li  Li24  1  0.69874544  0.01805893  0.72207106  1
  Li  Li25  1  -0.01805893  0.68068651  0.72207106  1
  Li  Li26  1  -0.68068651  -0.69874544  0.72207106  1
  Li  Li27  1  -0.01805893  -0.69874544  -0.72207106  1
  Li  Li28  1  -0.68068651  0.01805893  -0.72207106  1
  Li  Li29  1  0.69874544  0.68068651  -0.72207106  1
  Li  Li30  1  0.26437184  0.59628536  0.36303668  1
  Li  Li31  1  0.40371464  0.66808648  0.36303668  1
  Li  Li32  1  0.33191352  0.73562816  0.36303668  1
  Li  Li33  1  0.40371464  0.73562816  0.63696332  1
  Li  Li34  1  0.33191352  0.59628536  0.63696332  1
  Li  Li35  1  0.26437184  0.66808648  0.63696332  1
  Li  Li36  1  0.04060412  0.59506064  0.12571202  1
  Li  Li37  1  0.40493936  0.44554348  0.12571202  1
  Li  Li38  1  0.55445652  0.95939588  0.12571202  1
  Li  Li39  1  0.40493936  0.95939588  0.87428798  1
  Li  Li40  1  0.55445652  0.59506064  0.87428798  1
  Li  Li41  1  0.04060412  0.44554348  0.87428798  1
  Li  Li42  1  0.80731942  0.58392660  0.71886631  1
  Li  Li43  1  0.41607340  0.22339282  0.71886631  1
  Li  Li44  1  0.77660718  0.19268058  0.71886631  1
  Li  Li45  1  0.41607340  0.19268058  0.28113369  1
  Li  Li46  1  0.77660718  0.58392660  0.28113369  1
  Li  Li47  1  0.80731942  0.22339282  0.28113369  1
