# generated using pymatgen
data_Li2Y2Te4P2Se
_symmetry_space_group_name_H-M   'P 1'
_cell_length_a   5.65256142
_cell_length_b   5.91334369
_cell_length_c   7.17483915
_cell_angle_alpha   93.25581919
_cell_angle_beta   97.32624763
_cell_angle_gamma   103.36198670
_symmetry_Int_Tables_number   1
_chemical_formula_structural   Li2Y2Te4P2Se
_chemical_formula_sum   'Li2 Y2 Te4 P2 Se1'
_cell_volume   230.49928285
_cell_formula_units_Z   1
loop_
 _symmetry_equiv_pos_site_id
 _symmetry_equiv_pos_as_xyz
  1  'x, y, z'
loop_
 _atom_site_type_symbol
 _atom_site_label
 _atom_site_symmetry_multiplicity
 _atom_site_fract_x
 _atom_site_fract_y
 _atom_site_fract_z
 _atom_site_occupancy
  Se  Se0  1  0.00000000  0.00000000  0.00000000  1
  Te  Te1  1  0.50000000  0.50000000  0.50000000  1
  Te  Te2  1  0.50000000  0.50000000  0.00000000  1
  Te  Te3  1  0.50000000  0.00000000  0.50000000  1
  Te  Te4  1  0.00000000  0.50000000  0.50000000  1
  Y  Y5  1  0.69201870  0.40184706  0.70853260  1
  Y  Y6  1  0.30497592  0.01116562  0.84580371  1
  P  P7  1  0.43962453  0.13585836  0.37470580  1
  P  P8  1  0.38463244  0.78462867  0.94453718  1
  Li  Li9  1  0.23874729  0.56887586  0.67848871  1
  Li  Li10  1  0.41860520  0.30463984  0.32504315  1
