# generated using pymatgen
data_Li2Si4Te3F12
_symmetry_space_group_name_H-M   'P 1'
_cell_length_a   18.57217639
_cell_length_b   18.57217639
_cell_length_c   3.51528979
_cell_angle_alpha   90.00000000
_cell_angle_beta   90.00000000
_cell_angle_gamma   90.00000000
_symmetry_Int_Tables_number   1
_chemical_formula_structural   Li2Si4Te3F12
_chemical_formula_sum   'Li8 Si16 Te12 F48'
_cell_volume   1212.51391612
_cell_formula_units_Z   4
loop_
 _symmetry_equiv_pos_site_id
 _symmetry_equiv_pos_as_xyz
  1  'x, y, z'
loop_
 _atom_site_type_symbol
 _atom_site_label
 _atom_site_symmetry_multiplicity
 _atom_site_fract_x
 _atom_site_fract_y
 _atom_site_fract_z
 _atom_site_occupancy
  F  F0  1  0.71544160  0.17064178  0.61589150  1
  F  F1  1  -0.21544160  -0.17064178  1.11589150  1
  F  F2  1  0.07935822  1.46544160  0.86589150  1
  F  F3  1  0.42064178  -0.46544160  1.36589150  1
  F  F4  1  -0.21544160  0.17064178  -0.11589150  1
  F  F5  1  0.71544160  -0.17064178  -0.61589150  1
  F  F6  1  0.42064178  1.46544160  -0.36589150  1
  F  F7  1  0.07935822  -0.46544160  0.13410850  1
  F  F8  1  -0.71544160  -0.17064178  -0.61589150  1
  F  F9  1  1.21544160  0.17064178  -0.11589150  1
  F  F10  1  0.92064178  -0.46544160  0.13410850  1
  F  F11  1  0.57935822  1.46544160  -0.36589150  1
  F  F12  1  1.21544160  -0.17064178  1.11589150  1
  F  F13  1  -0.71544160  0.17064178  0.61589150  1
  F  F14  1  0.57935822  -0.46544160  1.36589150  1
  F  F15  1  0.92064178  1.46544160  0.86589150  1
  F  F16  1  1.21544160  0.67064178  1.11589150  1
  F  F17  1  0.28455840  0.32935822  1.61589150  1
  F  F18  1  0.57935822  1.96544160  1.36589150  1
  F  F19  1  0.92064178  0.03455840  1.86589150  1
  F  F20  1  0.28455840  0.67064178  0.38410850  1
  F  F21  1  1.21544160  0.32935822  -0.11589150  1
  F  F22  1  0.92064178  1.96544160  0.13410850  1
  F  F23  1  0.57935822  0.03455840  0.63410850  1
  F  F24  1  -0.21544160  0.32935822  -0.11589150  1
  F  F25  1  1.71544160  0.67064178  0.38410850  1
  F  F26  1  1.42064178  0.03455840  0.63410850  1
  F  F27  1  1.07935822  1.96544160  0.13410850  1
  F  F28  1  1.71544160  0.32935822  1.61589150  1
  F  F29  1  -0.21544160  0.67064178  1.11589150  1
  F  F30  1  1.07935822  0.03455840  1.86589150  1
  F  F31  1  1.42064178  1.96544160  1.36589150  1
  F  F32  1  0.76301963  0.01301963  0.87500000  1
  F  F33  1  0.73698037  0.98698037  0.37500000  1
  F  F34  1  0.23698037  0.51301963  0.12500000  1
  F  F35  1  0.26301963  0.48698037  0.62500000  1
  F  F36  1  0.23698037  0.98698037  0.12500000  1
  F  F37  1  0.26301963  0.01301963  0.62500000  1
  F  F38  1  0.76301963  0.48698037  0.87500000  1
  F  F39  1  0.73698037  0.51301963  0.37500000  1
  F  F40  1  0.26301963  0.51301963  0.37500000  1
  F  F41  1  0.23698037  0.48698037  0.87500000  1
  F  F42  1  0.73698037  0.01301963  0.62500000  1
  F  F43  1  0.76301963  0.98698037  0.12500000  1
  F  F44  1  0.73698037  0.48698037  0.62500000  1
  F  F45  1  0.76301963  0.51301963  0.12500000  1
  F  F46  1  0.26301963  0.98698037  0.37500000  1
  F  F47  1  0.23698037  0.01301963  0.87500000  1
  Li  Li48  1  0.00000000  0.00000000  0.50000000  1
  Li  Li49  1  0.50000000  0.00000000  0.00000000  1
  Li  Li50  1  0.25000000  0.75000000  0.75000000  1
  Li  Li51  1  0.25000000  0.25000000  0.25000000  1
  Li  Li52  1  0.50000000  0.50000000  0.00000000  1
  Li  Li53  1  0.00000000  0.50000000  0.50000000  1
  Li  Li54  1  0.75000000  0.25000000  0.25000000  1
  Li  Li55  1  0.75000000  0.75000000  0.75000000  1
  Si  Si56  1  0.15960890  0.00000000  -0.00000000  1
  Si  Si57  1  0.34039110  -0.00000000  0.50000000  1
  Si  Si58  1  0.25000000  0.90960890  0.25000000  1
  Si  Si59  1  0.25000000  0.09039110  0.75000000  1
  Si  Si60  1  0.84039110  0.00000000  0.00000000  1
  Si  Si61  1  0.65960890  -0.00000000  0.50000000  1
  Si  Si62  1  0.75000000  0.09039110  0.75000000  1
  Si  Si63  1  0.75000000  0.90960890  0.25000000  1
  Si  Si64  1  0.65960890  0.50000000  0.50000000  1
  Si  Si65  1  0.84039110  0.50000000  0.00000000  1
  Si  Si66  1  0.75000000  0.40960890  0.75000000  1
  Si  Si67  1  0.75000000  0.59039110  0.25000000  1
  Si  Si68  1  0.34039110  0.50000000  0.50000000  1
  Si  Si69  1  0.15960890  0.50000000  -0.00000000  1
  Si  Si70  1  0.25000000  0.59039110  0.25000000  1
  Si  Si71  1  0.25000000  0.40960890  0.75000000  1
  Te  Te72  1  0.00000000  0.75000000  0.12500000  1
  Te  Te73  1  0.50000000  0.75000000  0.37500000  1
  Te  Te74  1  0.50000000  0.25000000  0.62500000  1
  Te  Te75  1  0.00000000  0.25000000  0.87500000  1
  Te  Te76  1  0.00000000  0.00000000  0.00000000  1
  Te  Te77  1  0.50000000  0.00000000  0.50000000  1
  Te  Te78  1  0.25000000  0.75000000  0.25000000  1
  Te  Te79  1  0.25000000  0.25000000  0.75000000  1
  Te  Te80  1  0.50000000  0.50000000  0.50000000  1
  Te  Te81  1  0.00000000  0.50000000  0.00000000  1
  Te  Te82  1  0.75000000  0.25000000  0.75000000  1
  Te  Te83  1  0.75000000  0.75000000  0.25000000  1
