# generated using pymatgen
data_Li2Si4Te3F12
_symmetry_space_group_name_H-M   'P 1'
_cell_length_a   7.05999222
_cell_length_b   14.42764578
_cell_length_c   12.06698766
_cell_angle_alpha   90.00000000
_cell_angle_beta   90.00000000
_cell_angle_gamma   90.00000000
_symmetry_Int_Tables_number   1
_chemical_formula_structural   Li2Si4Te3F12
_chemical_formula_sum   'Li8 Si16 Te12 F48'
_cell_volume   1229.13210443
_cell_formula_units_Z   4
loop_
 _symmetry_equiv_pos_site_id
 _symmetry_equiv_pos_as_xyz
  1  'x, y, z'
loop_
 _atom_site_type_symbol
 _atom_site_label
 _atom_site_symmetry_multiplicity
 _atom_site_fract_x
 _atom_site_fract_y
 _atom_site_fract_z
 _atom_site_occupancy
  F  F0  1  0.20801419  0.07925487  0.11937453  1
  F  F1  1  0.79198581  0.92074513  0.11937453  1
  F  F2  1  0.29198581  0.57925487  0.38062547  1
  F  F3  1  0.70801419  0.42074513  0.38062547  1
  F  F4  1  0.79198581  0.92074513  0.88062547  1
  F  F5  1  0.20801419  0.07925487  0.88062547  1
  F  F6  1  0.70801419  0.42074513  0.61937453  1
  F  F7  1  0.29198581  0.57925487  0.61937453  1
  F  F8  1  0.14724894  0.80548861  0.91801364  1
  F  F9  1  0.85275106  0.19451139  0.91801364  1
  F  F10  1  0.35275106  0.30548861  0.58198636  1
  F  F11  1  0.64724894  0.69451139  0.58198636  1
  F  F12  1  0.85275106  0.19451139  0.08198636  1
  F  F13  1  0.14724894  0.80548861  0.08198636  1
  F  F14  1  0.64724894  0.69451139  0.41801364  1
  F  F15  1  0.35275106  0.30548861  0.41801364  1
  F  F16  1  0.47217771  0.18497511  0.64419688  1
  F  F17  1  0.52782229  0.81502489  0.64419688  1
  F  F18  1  0.02782229  0.68497511  0.85580312  1
  F  F19  1  0.97217771  0.31502489  0.85580312  1
  F  F20  1  0.52782229  0.81502489  0.35580312  1
  F  F21  1  0.47217771  0.18497511  0.35580312  1
  F  F22  1  0.97217771  0.31502489  0.14419688  1
  F  F23  1  0.02782229  0.68497511  0.14419688  1
  F  F24  1  0.81730720  0.33169993  -0.00000000  1
  F  F25  1  0.18269280  0.66830007  -0.00000000  1
  F  F26  1  0.68269280  0.83169993  0.50000000  1
  F  F27  1  0.31730720  0.16830007  0.50000000  1
  F  F28  1  0.52712020  0.40465650  0.70448086  1
  F  F29  1  0.47287980  0.59534350  0.70448086  1
  F  F30  1  0.97287980  0.90465650  0.79551914  1
  F  F31  1  0.02712020  0.09534350  0.79551914  1
  F  F32  1  0.47287980  0.59534350  0.29551914  1
  F  F33  1  0.52712020  0.40465650  0.29551914  1
  F  F34  1  0.02712020  0.09534350  0.20448086  1
  F  F35  1  0.97287980  0.90465650  0.20448086  1
  F  F36  1  0.74900762  0.77042120  0.00000000  1
  F  F37  1  0.25099238  0.22957880  0.00000000  1
  F  F38  1  0.75099238  0.27042120  0.50000000  1
  F  F39  1  0.24900762  0.72957880  0.50000000  1
  F  F40  1  0.26672982  0.75873549  0.39193135  1
  F  F41  1  0.73327018  0.24126451  0.39193135  1
  F  F42  1  0.23327018  0.25873549  0.10806865  1
  F  F43  1  0.76672982  0.74126451  0.10806865  1
  F  F44  1  0.73327018  0.24126451  0.60806865  1
  F  F45  1  0.26672982  0.75873549  0.60806865  1
  F  F46  1  0.76672982  0.74126451  0.89193135  1
  F  F47  1  0.23327018  0.25873549  0.89193135  1
  Li  Li48  1  0.16421059  0.87615314  -0.00000000  1
  Li  Li49  1  0.83578941  0.12384686  0.00000000  1
  Li  Li50  1  0.33578941  0.37615314  0.50000000  1
  Li  Li51  1  0.66421059  0.62384686  0.50000000  1
  Li  Li52  1  0.00000000  0.00000000  0.83071442  1
  Li  Li53  1  0.50000000  0.50000000  0.66928558  1
  Li  Li54  1  0.00000000  0.00000000  0.16928558  1
  Li  Li55  1  0.50000000  0.50000000  0.33071442  1
  Si  Si56  1  0.08315664  0.17490375  -0.00000000  1
  Si  Si57  1  0.91684336  0.82509625  0.00000000  1
  Si  Si58  1  0.41684336  0.67490375  0.50000000  1
  Si  Si59  1  0.58315664  0.32509625  0.50000000  1
  Si  Si60  1  0.78342998  0.55521028  -0.00000000  1
  Si  Si61  1  0.21657002  0.44478972  -0.00000000  1
  Si  Si62  1  0.71657002  0.05521028  0.50000000  1
  Si  Si63  1  0.28342998  0.94478972  0.50000000  1
  Si  Si64  1  0.88245419  0.82015581  0.36314793  1
  Si  Si65  1  -0.88245419  -0.82015581  0.36314793  1
  Si  Si66  1  -0.38245419  1.32015581  0.13685207  1
  Si  Si67  1  1.38245419  -0.32015581  0.13685207  1
  Si  Si68  1  -0.88245419  -0.82015581  -0.36314793  1
  Si  Si69  1  0.88245419  0.82015581  -0.36314793  1
  Si  Si70  1  1.38245419  -0.32015581  0.86314793  1
  Si  Si71  1  -0.38245419  1.32015581  0.86314793  1
  Te  Te72  1  0.62743869  0.87220505  0.25987911  1
  Te  Te73  1  0.37256131  0.12779495  0.25987911  1
  Te  Te74  1  0.87256131  0.37220505  0.24012089  1
  Te  Te75  1  0.12743869  0.62779495  0.24012089  1
  Te  Te76  1  0.37256131  0.12779495  0.74012089  1
  Te  Te77  1  0.62743869  0.87220505  0.74012089  1
  Te  Te78  1  0.12743869  0.62779495  0.75987911  1
  Te  Te79  1  0.87256131  0.37220505  0.75987911  1
  Te  Te80  1  0.00000000  0.50000000  0.50000000  1
  Te  Te81  1  0.50000000  0.00000000  0.00000000  1
  Te  Te82  1  0.00000000  0.00000000  0.50000000  1
  Te  Te83  1  0.50000000  0.50000000  -0.00000000  1
