# generated using pymatgen
data_Li5Ca4Se4F5
_symmetry_space_group_name_H-M   'P 1'
_cell_length_a   7.36849380
_cell_length_b   7.36849380
_cell_length_c   9.26257067
_cell_angle_alpha   90.00000000
_cell_angle_beta   90.00000000
_cell_angle_gamma   120.00000000
_symmetry_Int_Tables_number   1
_chemical_formula_structural   Li5Ca4Se4F5
_chemical_formula_sum   'Li5 Ca4 Se4 F5'
_cell_volume   435.53153953
_cell_formula_units_Z   1
loop_
 _symmetry_equiv_pos_site_id
 _symmetry_equiv_pos_as_xyz
  1  'x, y, z'
loop_
 _atom_site_type_symbol
 _atom_site_label
 _atom_site_symmetry_multiplicity
 _atom_site_fract_x
 _atom_site_fract_y
 _atom_site_fract_z
 _atom_site_occupancy
  Ca  Ca0  1  0.33333333  0.66666667  0.00000000  1
  Ca  Ca1  1  0.22677372  0.77322628  0.50000000  1
  Ca  Ca2  1  0.22677372  0.45354745  0.50000000  1
  Ca  Ca3  1  0.54645255  0.77322628  0.50000000  1
  F  F4  1  0.86025621  -0.86025621  0.50000000  1
  F  F5  1  0.86025621  1.72051243  0.50000000  1
  F  F6  1  -1.72051243  -0.86025621  0.50000000  1
  F  F7  1  0.33333333  0.66666667  0.23812588  1
  F  F8  1  0.33333333  0.66666667  0.76187412  1
  Li  Li9  1  0.12781704  0.87218296  0.00000000  1
  Li  Li10  1  0.12781704  0.25563408  0.00000000  1
  Li  Li11  1  0.74436592  0.87218296  0.00000000  1
  Li  Li12  1  0.33333333  0.66666667  0.59300878  1
  Li  Li13  1  0.33333333  0.66666667  0.40699122  1
  Se  Se14  1  0.00000000  0.00000000  0.00000000  1
  Se  Se15  1  0.00000000  0.00000000  0.66020166  1
  Se  Se16  1  0.00000000  0.00000000  0.33979834  1
  Se  Se17  1  0.66666667  0.33333333  0.50000000  1
