# generated using pymatgen
data_LiF
_symmetry_space_group_name_H-M   'P 1'
_cell_length_a   16.32797815
_cell_length_b   6.80706316
_cell_length_c   9.25389403
_cell_angle_alpha   90.00000000
_cell_angle_beta   90.00000000
_cell_angle_gamma   90.00000000
_symmetry_Int_Tables_number   1
_chemical_formula_structural   LiF
_chemical_formula_sum   'Li28 F28'
_cell_volume   1028.52940541
_cell_formula_units_Z   28
loop_
 _symmetry_equiv_pos_site_id
 _symmetry_equiv_pos_as_xyz
  1  'x, y, z'
loop_
 _atom_site_type_symbol
 _atom_site_label
 _atom_site_symmetry_multiplicity
 _atom_site_fract_x
 _atom_site_fract_y
 _atom_site_fract_z
 _atom_site_occupancy
  F  F0  1  0.19765920  0.67386254  0.85924862  1
  F  F1  1  -0.19765920  -0.67386254  0.85924862  1
  F  F2  1  0.30234080  1.17386254  -0.85924862  1
  F  F3  1  0.69765920  -0.17386254  -0.85924862  1
  F  F4  1  -0.19765920  -0.67386254  -0.85924862  1
  F  F5  1  0.19765920  0.67386254  -0.85924862  1
  F  F6  1  0.69765920  -0.17386254  0.85924862  1
  F  F7  1  0.30234080  1.17386254  0.85924862  1
  F  F8  1  0.46742015  0.80912544  0.00000000  1
  F  F9  1  0.53257985  0.19087456  0.00000000  1
  F  F10  1  0.03257985  0.30912544  0.00000000  1
  F  F11  1  0.96742015  0.69087456  0.00000000  1
  F  F12  1  0.54423616  0.94405845  0.62690781  1
  F  F13  1  0.45576384  0.05594155  0.62690781  1
  F  F14  1  0.95576384  0.44405845  0.37309219  1
  F  F15  1  0.04423616  0.55594155  0.37309219  1
  F  F16  1  0.45576384  0.05594155  0.37309219  1
  F  F17  1  0.54423616  0.94405845  0.37309219  1
  F  F18  1  0.04423616  0.55594155  0.62690781  1
  F  F19  1  0.95576384  0.44405845  0.62690781  1
  F  F20  1  0.85125547  0.36090933  0.00000000  1
  F  F21  1  0.14874453  0.63909067  0.00000000  1
  F  F22  1  0.64874453  0.86090933  0.00000000  1
  F  F23  1  0.35125547  0.13909067  0.00000000  1
  F  F24  1  0.65737337  0.56884640  0.00000000  1
  F  F25  1  0.34262663  0.43115360  0.00000000  1
  F  F26  1  0.84262663  0.06884640  0.00000000  1
  F  F27  1  0.15737337  0.93115360  0.00000000  1
  Li  Li28  1  0.91432254  0.81477814  0.00000000  1
  Li  Li29  1  0.08567746  0.18522186  0.00000000  1
  Li  Li30  1  0.58567746  0.31477814  0.00000000  1
  Li  Li31  1  0.41432254  0.68522186  0.00000000  1
  Li  Li32  1  0.46264027  0.90628595  0.69702361  1
  Li  Li33  1  0.53735973  0.09371405  0.69702361  1
  Li  Li34  1  0.03735973  0.40628595  0.30297639  1
  Li  Li35  1  0.96264027  0.59371405  0.30297639  1
  Li  Li36  1  0.53735973  0.09371405  0.30297639  1
  Li  Li37  1  0.46264027  0.90628595  0.30297639  1
  Li  Li38  1  0.96264027  0.59371405  0.69702361  1
  Li  Li39  1  0.03735973  0.40628595  0.69702361  1
  Li  Li40  1  0.72731668  0.38630474  0.33405458  1
  Li  Li41  1  0.27268332  0.61369526  0.33405458  1
  Li  Li42  1  0.77268332  0.88630474  0.66594542  1
  Li  Li43  1  0.22731668  0.11369526  0.66594542  1
  Li  Li44  1  0.27268332  0.61369526  0.66594542  1
  Li  Li45  1  0.72731668  0.38630474  0.66594542  1
  Li  Li46  1  0.22731668  0.11369526  0.33405458  1
  Li  Li47  1  0.77268332  0.88630474  0.33405458  1
  Li  Li48  1  0.65026433  0.75379645  0.60530550  1
  Li  Li49  1  0.34973567  0.24620355  0.60530550  1
  Li  Li50  1  0.84973567  0.25379645  0.39469450  1
  Li  Li51  1  0.15026433  0.74620355  0.39469450  1
  Li  Li52  1  0.34973567  0.24620355  0.39469450  1
  Li  Li53  1  0.65026433  0.75379645  0.39469450  1
  Li  Li54  1  0.15026433  0.74620355  0.60530550  1
  Li  Li55  1  0.84973567  0.25379645  0.60530550  1
