# generated using pymatgen
data_LiF
_symmetry_space_group_name_H-M   'P 1'
_cell_length_a   12.90425690
_cell_length_b   12.90425690
_cell_length_c   10.10186310
_cell_angle_alpha   90.00000000
_cell_angle_beta   90.00000000
_cell_angle_gamma   120.00000000
_symmetry_Int_Tables_number   1
_chemical_formula_structural   LiF
_chemical_formula_sum   'Li48 F48'
_cell_volume   1456.79389050
_cell_formula_units_Z   48
loop_
 _symmetry_equiv_pos_site_id
 _symmetry_equiv_pos_as_xyz
  1  'x, y, z'
loop_
 _atom_site_type_symbol
 _atom_site_label
 _atom_site_symmetry_multiplicity
 _atom_site_fract_x
 _atom_site_fract_y
 _atom_site_fract_z
 _atom_site_occupancy
  F  F0  1  0.67290445  0.45050187  0.01925073  1
  F  F1  1  -0.45050187  0.22240258  0.01925073  1
  F  F2  1  -0.22240258  -0.67290445  0.01925073  1
  F  F3  1  0.45050187  0.67290445  0.48074927  1
  F  F4  1  0.22240258  -0.45050187  0.48074927  1
  F  F5  1  -0.67290445  -0.22240258  0.48074927  1
  F  F6  1  -0.67290445  -0.45050187  -0.01925073  1
  F  F7  1  0.45050187  -0.22240258  -0.01925073  1
  F  F8  1  0.22240258  0.67290445  -0.01925073  1
  F  F9  1  -0.45050187  -0.67290445  0.51925073  1
  F  F10  1  -0.22240258  0.45050187  0.51925073  1
  F  F11  1  0.67290445  0.22240258  0.51925073  1
  F  F12  1  1.33957111  0.78383520  0.35258407  1
  F  F13  1  0.21616480  0.55573592  0.35258407  1
  F  F14  1  0.44426408  -0.33957111  0.35258407  1
  F  F15  1  1.11716853  1.00623778  0.81408260  1
  F  F16  1  0.88906925  -0.11716853  0.81408260  1
  F  F17  1  -0.00623778  0.11093075  0.81408260  1
  F  F18  1  -0.00623778  -0.11716853  0.31408260  1
  F  F19  1  1.11716853  0.11093075  0.31408260  1
  F  F20  1  0.88906925  1.00623778  0.31408260  1
  F  F21  1  0.21616480  -0.33957111  0.85258407  1
  F  F22  1  0.44426408  0.78383520  0.85258407  1
  F  F23  1  1.33957111  0.55573592  0.85258407  1
  F  F24  1  1.00623778  1.11716853  0.68591740  1
  F  F25  1  -0.11716853  0.88906925  0.68591740  1
  F  F26  1  0.11093075  -0.00623778  0.68591740  1
  F  F27  1  0.78383520  1.33957111  1.14741593  1
  F  F28  1  0.55573592  0.21616480  1.14741593  1
  F  F29  1  -0.33957111  0.44426408  1.14741593  1
  F  F30  1  -0.33957111  0.21616480  0.64741593  1
  F  F31  1  0.78383520  0.44426408  0.64741593  1
  F  F32  1  0.55573592  1.33957111  0.64741593  1
  F  F33  1  -0.11716853  -0.00623778  1.18591740  1
  F  F34  1  0.11093075  1.11716853  1.18591740  1
  F  F35  1  1.00623778  0.88906925  1.18591740  1
  F  F36  1  0.00000000  0.00000000  0.95481959  1
  F  F37  1  0.00000000  0.00000000  0.54518041  1
  F  F38  1  0.00000000  0.00000000  0.04518041  1
  F  F39  1  0.00000000  0.00000000  0.45481959  1
  F  F40  1  0.66666667  0.33333333  0.28815293  1
  F  F41  1  0.66666667  0.33333333  0.87851374  1
  F  F42  1  0.66666667  0.33333333  0.37851374  1
  F  F43  1  0.66666667  0.33333333  0.78815293  1
  F  F44  1  0.33333333  0.66666667  0.62148626  1
  F  F45  1  0.33333333  0.66666667  0.21184707  1
  F  F46  1  0.33333333  0.66666667  0.71184707  1
  F  F47  1  0.33333333  0.66666667  0.12148626  1
  Li  Li48  1  0.70140355  0.21772951  0.16491621  1
  Li  Li49  1  0.78227049  0.48367404  0.16491621  1
  Li  Li50  1  0.51632596  0.29859645  0.16491621  1
  Li  Li51  1  0.21772951  0.70140355  0.33508379  1
  Li  Li52  1  0.48367404  0.78227049  0.33508379  1
  Li  Li53  1  0.29859645  0.51632596  0.33508379  1
  Li  Li54  1  0.29859645  0.78227049  0.83508379  1
  Li  Li55  1  0.21772951  0.51632596  0.83508379  1
  Li  Li56  1  0.48367404  0.70140355  0.83508379  1
  Li  Li57  1  0.78227049  0.29859645  0.66491621  1
  Li  Li58  1  0.51632596  0.21772951  0.66491621  1
  Li  Li59  1  0.70140355  0.48367404  0.66491621  1
  Li  Li60  1  0.36807021  0.55106284  0.49824955  1
  Li  Li61  1  0.44893716  0.81700737  0.49824955  1
  Li  Li62  1  0.18299263  0.63192979  0.49824955  1
  Li  Li63  1  0.88439618  0.03473688  0.66841712  1
  Li  Li64  1  0.15034070  0.11560382  0.66841712  1
  Li  Li65  1  0.96526312  0.84965930  0.66841712  1
  Li  Li66  1  0.96526312  0.11560382  0.16841712  1
  Li  Li67  1  0.88439618  0.84965930  0.16841712  1
  Li  Li68  1  0.15034070  0.03473688  0.16841712  1
  Li  Li69  1  0.44893716  0.63192979  0.99824955  1
  Li  Li70  1  0.18299263  0.55106284  0.99824955  1
  Li  Li71  1  0.36807021  0.81700737  0.99824955  1
  Li  Li72  1  0.03473688  0.88439618  0.83158288  1
  Li  Li73  1  0.11560382  0.15034070  0.83158288  1
  Li  Li74  1  0.84965930  0.96526312  0.83158288  1
  Li  Li75  1  0.55106284  0.36807021  0.00175045  1
  Li  Li76  1  0.81700737  0.44893716  0.00175045  1
  Li  Li77  1  0.63192979  0.18299263  0.00175045  1
  Li  Li78  1  0.63192979  0.44893716  0.50175045  1
  Li  Li79  1  0.55106284  0.18299263  0.50175045  1
  Li  Li80  1  0.81700737  0.36807021  0.50175045  1
  Li  Li81  1  0.11560382  0.96526312  0.33158288  1
  Li  Li82  1  0.84965930  0.88439618  0.33158288  1
  Li  Li83  1  0.03473688  0.15034070  0.33158288  1
  Li  Li84  1  0.00000000  0.00000000  0.35967536  1
  Li  Li85  1  0.00000000  0.00000000  0.14032464  1
  Li  Li86  1  0.00000000  0.00000000  0.64032464  1
  Li  Li87  1  0.00000000  0.00000000  0.85967536  1
  Li  Li88  1  0.66666667  0.33333333  0.69300869  1
  Li  Li89  1  0.66666667  0.33333333  0.47365797  1
  Li  Li90  1  0.66666667  0.33333333  0.97365797  1
  Li  Li91  1  0.66666667  0.33333333  0.19300869  1
  Li  Li92  1  0.33333333  0.66666667  0.02634203  1
  Li  Li93  1  0.33333333  0.66666667  0.80699131  1
  Li  Li94  1  0.33333333  0.66666667  0.30699131  1
  Li  Li95  1  0.33333333  0.66666667  0.52634203  1
