# generated using pymatgen
data_LiF
_symmetry_space_group_name_H-M   'P 1'
_cell_length_a   5.17223211
_cell_length_b   8.38117834
_cell_length_c   7.46470264
_cell_angle_alpha   90.00000000
_cell_angle_beta   90.00000000
_cell_angle_gamma   90.00000000
_symmetry_Int_Tables_number   1
_chemical_formula_structural   LiF
_chemical_formula_sum   'Li18 F18'
_cell_volume   323.59037858
_cell_formula_units_Z   18
loop_
 _symmetry_equiv_pos_site_id
 _symmetry_equiv_pos_as_xyz
  1  'x, y, z'
loop_
 _atom_site_type_symbol
 _atom_site_label
 _atom_site_symmetry_multiplicity
 _atom_site_fract_x
 _atom_site_fract_y
 _atom_site_fract_z
 _atom_site_occupancy
  F  F0  1  0.00000000  0.00000000  0.05780281  1
  F  F1  1  0.50000000  0.50000000  0.44219719  1
  F  F2  1  0.00000000  0.00000000  0.94219719  1
  F  F3  1  0.50000000  0.50000000  0.55780281  1
  F  F4  1  0.23852607  0.60777767  0.34714546  1
  F  F5  1  -0.23852607  -0.60777767  0.34714546  1
  F  F6  1  0.26147393  1.10777767  0.15285454  1
  F  F7  1  0.73852607  -0.10777767  0.15285454  1
  F  F8  1  -0.23852607  -0.60777767  -0.34714546  1
  F  F9  1  0.23852607  0.60777767  -0.34714546  1
  F  F10  1  0.73852607  -0.10777767  0.84714546  1
  F  F11  1  0.26147393  1.10777767  0.84714546  1
  F  F12  1  0.00000000  0.50000000  0.80165539  1
  F  F13  1  0.50000000  0.00000000  0.69834461  1
  F  F14  1  0.00000000  0.50000000  0.19834461  1
  F  F15  1  0.50000000  0.00000000  0.30165539  1
  F  F16  1  0.00000000  0.00000000  0.50000000  1
  F  F17  1  0.50000000  0.50000000  0.00000000  1
  Li  Li18  1  0.30815313  0.27929836  0.77027193  1
  Li  Li19  1  0.69184687  0.72070164  0.77027193  1
  Li  Li20  1  0.19184687  0.77929836  0.72972807  1
  Li  Li21  1  0.80815313  0.22070164  0.72972807  1
  Li  Li22  1  0.69184687  0.72070164  0.22972807  1
  Li  Li23  1  0.30815313  0.27929836  0.22972807  1
  Li  Li24  1  0.80815313  0.22070164  0.27027193  1
  Li  Li25  1  0.19184687  0.77929836  0.27027193  1
  Li  Li26  1  0.00000000  0.50000000  -0.00000000  1
  Li  Li27  1  0.50000000  0.00000000  0.50000000  1
  Li  Li28  1  0.76815170  0.04290361  0.00000000  1
  Li  Li29  1  0.23184830  0.95709639  -0.00000000  1
  Li  Li30  1  0.73184830  0.54290361  0.50000000  1
  Li  Li31  1  0.26815170  0.45709639  0.50000000  1
  Li  Li32  1  0.00000000  0.50000000  0.65487694  1
  Li  Li33  1  0.50000000  0.00000000  0.84512306  1
  Li  Li34  1  0.00000000  0.50000000  0.34512306  1
  Li  Li35  1  0.50000000  0.00000000  0.15487694  1
