# generated using pymatgen
data_LiF
_symmetry_space_group_name_H-M   'P 1'
_cell_length_a   6.58030649
_cell_length_b   5.48064839
_cell_length_c   7.05471466
_cell_angle_alpha   90.00000000
_cell_angle_beta   90.00000000
_cell_angle_gamma   90.00000000
_symmetry_Int_Tables_number   1
_chemical_formula_structural   LiF
_chemical_formula_sum   'Li12 F12'
_cell_volume   254.42367168
_cell_formula_units_Z   12
loop_
 _symmetry_equiv_pos_site_id
 _symmetry_equiv_pos_as_xyz
  1  'x, y, z'
loop_
 _atom_site_type_symbol
 _atom_site_label
 _atom_site_symmetry_multiplicity
 _atom_site_fract_x
 _atom_site_fract_y
 _atom_site_fract_z
 _atom_site_occupancy
  F  F0  1  0.85001521  0.25000000  0.26476955  1
  F  F1  1  0.64998479  0.75000000  0.76476955  1
  F  F2  1  0.14998479  0.75000000  0.73523045  1
  F  F3  1  0.35001521  0.25000000  0.23523045  1
  F  F4  1  0.20876457  0.84671001  0.52622989  1
  F  F5  1  0.29123543  0.15328999  0.02622989  1
  F  F6  1  0.79123543  0.34671001  0.47377011  1
  F  F7  1  0.70876457  0.65328999  0.97377011  1
  F  F8  1  0.79123543  0.15328999  0.47377011  1
  F  F9  1  0.70876457  0.84671001  0.97377011  1
  F  F10  1  0.20876457  0.65328999  0.52622989  1
  F  F11  1  0.29123543  0.34671001  0.02622989  1
  Li  Li12  1  0.13070691  0.94589956  0.78217334  1
  Li  Li13  1  0.36929309  -0.94589956  1.28217334  1
  Li  Li14  1  -0.13070691  1.44589956  -0.78217334  1
  Li  Li15  1  0.63070691  -0.44589956  -0.28217334  1
  Li  Li16  1  -0.13070691  -0.94589956  -0.78217334  1
  Li  Li17  1  0.63070691  0.94589956  -0.28217334  1
  Li  Li18  1  0.13070691  -0.44589956  0.78217334  1
  Li  Li19  1  0.36929309  1.44589956  1.28217334  1
  Li  Li20  1  0.00000000  0.00000000  0.00000000  1
  Li  Li21  1  0.50000000  0.00000000  0.50000000  1
  Li  Li22  1  0.00000000  0.50000000  -0.00000000  1
  Li  Li23  1  0.50000000  0.50000000  0.50000000  1
