# generated using pymatgen
data_LiF
_symmetry_space_group_name_H-M   'P 1'
_cell_length_a   13.91651781
_cell_length_b   13.91651781
_cell_length_c   5.20873675
_cell_angle_alpha   90.00000000
_cell_angle_beta   90.00000000
_cell_angle_gamma   120.00000000
_symmetry_Int_Tables_number   1
_chemical_formula_structural   LiF
_chemical_formula_sum   'Li36 F36'
_cell_volume   873.62328319
_cell_formula_units_Z   36
loop_
 _symmetry_equiv_pos_site_id
 _symmetry_equiv_pos_as_xyz
  1  'x, y, z'
loop_
 _atom_site_type_symbol
 _atom_site_label
 _atom_site_symmetry_multiplicity
 _atom_site_fract_x
 _atom_site_fract_y
 _atom_site_fract_z
 _atom_site_occupancy
  F  F0  1  0.69858370  0.65270723  0.45396501  1
  F  F1  1  0.34729277  0.04587647  0.45396501  1
  F  F2  1  0.95412353  0.30141630  0.45396501  1
  F  F3  1  0.34729277  0.30141630  0.54603499  1
  F  F4  1  0.95412353  0.65270723  0.54603499  1
  F  F5  1  0.69858370  0.04587647  0.54603499  1
  F  F6  1  0.50660589  0.25140290  0.76086129  1
  F  F7  1  0.74859710  0.25520299  0.76086129  1
  F  F8  1  0.74479701  0.49339411  0.76086129  1
  F  F9  1  0.74859710  0.49339411  0.23913871  1
  F  F10  1  0.74479701  0.25140290  0.23913871  1
  F  F11  1  0.50660589  0.25520299  0.23913871  1
  F  F12  1  0.27079061  0.14748359  0.92325614  1
  F  F13  1  0.85251641  0.12330701  0.92325614  1
  F  F14  1  0.87669299  0.72920939  0.92325614  1
  F  F15  1  0.85251641  0.72920939  0.07674386  1
  F  F16  1  0.87669299  0.14748359  0.07674386  1
  F  F17  1  0.27079061  0.12330701  0.07674386  1
  F  F18  1  0.49148843  0.60223890  0.87752592  1
  F  F19  1  0.39776110  0.88924953  0.87752592  1
  F  F20  1  0.11075047  0.50851157  0.87752592  1
  F  F21  1  0.39776110  0.50851157  0.12247408  1
  F  F22  1  0.11075047  0.60223890  0.12247408  1
  F  F23  1  0.49148843  0.88924953  0.12247408  1
  F  F24  1  0.21897118  0.38476621  0.21295585  1
  F  F25  1  0.61523379  0.83420497  0.21295585  1
  F  F26  1  0.16579503  0.78102882  0.21295585  1
  F  F27  1  0.61523379  0.78102882  0.78704415  1
  F  F28  1  0.16579503  0.38476621  0.78704415  1
  F  F29  1  0.21897118  0.83420497  0.78704415  1
  F  F30  1  0.31923281  0.51399260  0.01550024  1
  F  F31  1  0.48600740  0.80524021  0.01550024  1
  F  F32  1  0.19475979  0.68076719  0.01550024  1
  F  F33  1  0.48600740  0.68076719  0.98449976  1
  F  F34  1  0.19475979  0.51399260  0.98449976  1
  F  F35  1  0.31923281  0.80524021  0.98449976  1
  Li  Li36  1  0.66666667  0.33333333  -0.00000000  1
  Li  Li37  1  0.00000000  0.00000000  0.00000000  1
  Li  Li38  1  0.33333333  0.66666667  0.50000000  1
  Li  Li39  1  0.66634504  0.70440106  0.89932267  1
  Li  Li40  1  -0.70440106  -0.03805602  0.89932267  1
  Li  Li41  1  0.03805602  -0.66634504  0.89932267  1
  Li  Li42  1  -0.70440106  -0.66634504  -0.89932267  1
  Li  Li43  1  0.03805602  0.70440106  -0.89932267  1
  Li  Li44  1  0.66634504  -0.03805602  -0.89932267  1
  Li  Li45  1  0.53709412  0.07264926  0.24520512  1
  Li  Li46  1  0.92735074  0.46444485  0.24520512  1
  Li  Li47  1  0.53555515  0.46290588  0.24520512  1
  Li  Li48  1  0.92735074  0.46290588  0.75479488  1
  Li  Li49  1  0.53555515  0.07264926  0.75479488  1
  Li  Li50  1  0.53709412  0.46444485  0.75479488  1
  Li  Li51  1  0.00000000  0.00000000  0.50000000  1
  Li  Li52  1  0.29530519  0.49816479  0.56767463  1
  Li  Li53  1  0.50183521  0.79714040  0.56767463  1
  Li  Li54  1  0.20285960  0.70469481  0.56767463  1
  Li  Li55  1  0.50183521  0.70469481  0.43232537  1
  Li  Li56  1  0.20285960  0.49816479  0.43232537  1
  Li  Li57  1  0.29530519  0.79714040  0.43232537  1
  Li  Li58  1  0.81790931  0.68704947  0.77341587  1
  Li  Li59  1  0.31295053  0.13085984  0.77341587  1
  Li  Li60  1  0.86914016  0.18209069  0.77341587  1
  Li  Li61  1  0.31295053  0.18209069  0.22658413  1
  Li  Li62  1  0.86914016  0.68704947  0.22658413  1
  Li  Li63  1  0.81790931  0.13085984  0.22658413  1
  Li  Li64  1  0.86815191  0.56134312  0.46073759  1
  Li  Li65  1  0.43865688  0.30680880  0.46073759  1
  Li  Li66  1  0.69319120  0.13184809  0.46073759  1
  Li  Li67  1  0.43865688  0.13184809  0.53926241  1
  Li  Li68  1  0.69319120  0.56134312  0.53926241  1
  Li  Li69  1  0.86815191  0.30680880  0.53926241  1
  Li  Li70  1  0.66666667  0.33333333  0.74464385  1
  Li  Li71  1  0.66666667  0.33333333  0.25535615  1
