# generated using pymatgen
data_LiF
_symmetry_space_group_name_H-M   'P 1'
_cell_length_a   16.39006409
_cell_length_b   11.36170470
_cell_length_c   7.61785037
_cell_angle_alpha   90.00000000
_cell_angle_beta   90.00000000
_cell_angle_gamma   90.00000000
_symmetry_Int_Tables_number   1
_chemical_formula_structural   LiF
_chemical_formula_sum   'Li52 F52'
_cell_volume   1418.58899676
_cell_formula_units_Z   52
loop_
 _symmetry_equiv_pos_site_id
 _symmetry_equiv_pos_as_xyz
  1  'x, y, z'
loop_
 _atom_site_type_symbol
 _atom_site_label
 _atom_site_symmetry_multiplicity
 _atom_site_fract_x
 _atom_site_fract_y
 _atom_site_fract_z
 _atom_site_occupancy
  F  F0  1  0.77612193  0.15435517  0.22127507  1
  F  F1  1  0.22387807  0.84564483  0.22127507  1
  F  F2  1  0.72387807  0.65435517  0.77872493  1
  F  F3  1  0.27612193  0.34564483  0.77872493  1
  F  F4  1  0.22387807  0.84564483  0.77872493  1
  F  F5  1  0.77612193  0.15435517  0.77872493  1
  F  F6  1  0.27612193  0.34564483  0.22127507  1
  F  F7  1  0.72387807  0.65435517  0.22127507  1
  F  F8  1  0.72593625  0.87096974  0.50000000  1
  F  F9  1  0.27406375  0.12903026  0.50000000  1
  F  F10  1  0.77406375  0.37096974  0.50000000  1
  F  F11  1  0.22593625  0.62903026  0.50000000  1
  F  F12  1  0.00000000  0.50000000  0.54909237  1
  F  F13  1  0.50000000  0.00000000  0.45090763  1
  F  F14  1  0.00000000  0.50000000  0.45090763  1
  F  F15  1  0.50000000  0.00000000  0.54909237  1
  F  F16  1  0.00000000  0.50000000  0.24758987  1
  F  F17  1  0.50000000  0.00000000  0.75241013  1
  F  F18  1  0.00000000  0.50000000  0.75241013  1
  F  F19  1  0.50000000  0.00000000  0.24758987  1
  F  F20  1  0.57814520  0.21008451  0.50000000  1
  F  F21  1  0.42185480  0.78991549  0.50000000  1
  F  F22  1  0.92185480  0.71008451  0.50000000  1
  F  F23  1  0.07814520  0.28991549  0.50000000  1
  F  F24  1  0.23955720  0.01854567  0.41174087  1
  F  F25  1  0.76044280  0.98145433  0.41174087  1
  F  F26  1  0.26044280  0.51854567  0.58825913  1
  F  F27  1  0.73955720  0.48145433  0.58825913  1
  F  F28  1  0.76044280  0.98145433  0.58825913  1
  F  F29  1  0.23955720  0.01854567  0.58825913  1
  F  F30  1  0.73955720  0.48145433  0.41174087  1
  F  F31  1  0.26044280  0.51854567  0.41174087  1
  F  F32  1  0.86457937  0.40934018  0.28273480  1
  F  F33  1  0.13542063  0.59065982  0.28273480  1
  F  F34  1  0.63542063  0.90934018  0.71726520  1
  F  F35  1  0.36457937  0.09065982  0.71726520  1
  F  F36  1  0.13542063  0.59065982  0.71726520  1
  F  F37  1  0.86457937  0.40934018  0.71726520  1
  F  F38  1  0.36457937  0.09065982  0.28273480  1
  F  F39  1  0.63542063  0.90934018  0.28273480  1
  F  F40  1  0.10207114  0.21571466  0.50000000  1
  F  F41  1  0.89792886  0.78428534  0.50000000  1
  F  F42  1  0.39792886  0.71571466  0.50000000  1
  F  F43  1  0.60207114  0.28428534  0.50000000  1
  F  F44  1  0.79109607  0.39443073  0.62201658  1
  F  F45  1  0.20890393  0.60556927  0.62201658  1
  F  F46  1  0.70890393  0.89443073  0.37798342  1
  F  F47  1  0.29109607  0.10556927  0.37798342  1
  F  F48  1  0.20890393  0.60556927  0.37798342  1
  F  F49  1  0.79109607  0.39443073  0.37798342  1
  F  F50  1  0.29109607  0.10556927  0.62201658  1
  F  F51  1  0.70890393  0.89443073  0.62201658  1
  Li  Li52  1  0.96267289  0.81517863  0.50000000  1
  Li  Li53  1  0.03732711  0.18482137  0.50000000  1
  Li  Li54  1  0.53732711  0.31517863  0.50000000  1
  Li  Li55  1  0.46267289  0.68482137  0.50000000  1
  Li  Li56  1  0.69563854  0.13557907  0.50000000  1
  Li  Li57  1  0.30436146  0.86442093  0.50000000  1
  Li  Li58  1  0.80436146  0.63557907  0.50000000  1
  Li  Li59  1  0.19563854  0.36442093  0.50000000  1
  Li  Li60  1  0.21283755  0.06473092  0.81998466  1
  Li  Li61  1  -0.21283755  -0.06473092  0.81998466  1
  Li  Li62  1  0.28716245  0.56473092  -0.81998466  1
  Li  Li63  1  0.71283755  0.43526908  -0.81998466  1
  Li  Li64  1  -0.21283755  -0.06473092  -0.81998466  1
  Li  Li65  1  0.21283755  0.06473092  -0.81998466  1
  Li  Li66  1  0.71283755  0.43526908  0.81998466  1
  Li  Li67  1  0.28716245  0.56473092  0.81998466  1
  Li  Li68  1  0.53932236  0.74685243  0.50000000  1
  Li  Li69  1  0.46067764  0.25314757  0.50000000  1
  Li  Li70  1  0.96067764  0.24685243  0.50000000  1
  Li  Li71  1  0.03932236  0.75314757  0.50000000  1
  Li  Li72  1  0.42370949  0.10531838  -0.00000000  1
  Li  Li73  1  0.57629051  0.89468162  0.00000000  1
  Li  Li74  1  0.07629051  0.60531838  0.00000000  1
  Li  Li75  1  0.92370949  0.39468162  0.00000000  1
  Li  Li76  1  0.00000000  0.00000000  0.00000000  1
  Li  Li77  1  0.50000000  0.50000000  0.00000000  1
  Li  Li78  1  0.03138663  0.23971947  -0.00000000  1
  Li  Li79  1  0.96861337  0.76028053  -0.00000000  1
  Li  Li80  1  0.46861337  0.73971947  0.00000000  1
  Li  Li81  1  0.53138663  0.26028053  -0.00000000  1
  Li  Li82  1  0.09808933  0.40114468  0.00000000  1
  Li  Li83  1  0.90191067  0.59885532  -0.00000000  1
  Li  Li84  1  0.40191067  0.90114468  0.00000000  1
  Li  Li85  1  0.59808933  0.09885532  -0.00000000  1
  Li  Li86  1  0.00000000  0.50000000  0.00000000  1
  Li  Li87  1  0.50000000  0.00000000  0.00000000  1
  Li  Li88  1  0.95708599  0.97926320  0.50000000  1
  Li  Li89  1  0.04291401  0.02073680  0.50000000  1
  Li  Li90  1  0.54291401  0.47926320  0.50000000  1
  Li  Li91  1  0.45708599  0.52073680  0.50000000  1
  Li  Li92  1  0.55866302  0.16032181  0.32595278  1
  Li  Li93  1  0.44133698  0.83967819  0.32595278  1
  Li  Li94  1  0.94133698  0.66032181  0.67404722  1
  Li  Li95  1  0.05866302  0.33967819  0.67404722  1
  Li  Li96  1  0.44133698  0.83967819  0.67404722  1
  Li  Li97  1  0.55866302  0.16032181  0.67404722  1
  Li  Li98  1  0.05866302  0.33967819  0.32595278  1
  Li  Li99  1  0.94133698  0.66032181  0.32595278  1
  Li  Li100  1  0.28082899  0.14356267  -0.00000000  1
  Li  Li101  1  0.71917101  0.85643733  -0.00000000  1
  Li  Li102  1  0.21917101  0.64356267  -0.00000000  1
  Li  Li103  1  0.78082899  0.35643733  0.00000000  1
