# generated using pymatgen
data_LiF
_symmetry_space_group_name_H-M   'P 1'
_cell_length_a   6.95146731
_cell_length_b   7.38200519
_cell_length_c   8.53250541
_cell_angle_alpha   90.00000000
_cell_angle_beta   90.00000000
_cell_angle_gamma   90.00000000
_symmetry_Int_Tables_number   1
_chemical_formula_structural   LiF
_chemical_formula_sum   'Li24 F24'
_cell_volume   437.85206579
_cell_formula_units_Z   24
loop_
 _symmetry_equiv_pos_site_id
 _symmetry_equiv_pos_as_xyz
  1  'x, y, z'
loop_
 _atom_site_type_symbol
 _atom_site_label
 _atom_site_symmetry_multiplicity
 _atom_site_fract_x
 _atom_site_fract_y
 _atom_site_fract_z
 _atom_site_occupancy
  F  F0  1  0.66287509  0.87292341  0.97775280  1
  F  F1  1  0.83712491  0.12707659  0.47775280  1
  F  F2  1  0.33712491  0.37292341  0.02224720  1
  F  F3  1  0.16287509  0.62707659  0.52224720  1
  F  F4  1  0.33712491  0.12707659  0.02224720  1
  F  F5  1  0.16287509  0.87292341  0.52224720  1
  F  F6  1  0.66287509  0.62707659  0.97775280  1
  F  F7  1  0.83712491  0.37292341  0.47775280  1
  F  F8  1  0.61157872  0.20181351  0.05525493  1
  F  F9  1  0.88842128  0.79818649  0.55525493  1
  F  F10  1  0.38842128  0.70181351  0.94474507  1
  F  F11  1  0.11157872  0.29818649  0.44474507  1
  F  F12  1  0.38842128  0.79818649  0.94474507  1
  F  F13  1  0.11157872  0.20181351  0.44474507  1
  F  F14  1  0.61157872  0.29818649  0.05525493  1
  F  F15  1  0.88842128  0.70181351  0.55525493  1
  F  F16  1  0.94614808  0.49483896  0.69244012  1
  F  F17  1  0.55385192  0.50516104  0.19244012  1
  F  F18  1  0.05385192  0.99483896  0.30755988  1
  F  F19  1  0.44614808  0.00516104  0.80755988  1
  F  F20  1  0.05385192  0.50516104  0.30755988  1
  F  F21  1  0.44614808  0.49483896  0.80755988  1
  F  F22  1  0.94614808  0.00516104  0.69244012  1
  F  F23  1  0.55385192  0.99483896  0.19244012  1
  Li  Li24  1  0.13148409  0.25000000  0.96878963  1
  Li  Li25  1  0.36851591  0.75000000  0.46878963  1
  Li  Li26  1  0.86851591  0.75000000  0.03121037  1
  Li  Li27  1  0.63148409  0.25000000  0.53121037  1
  Li  Li28  1  0.36466009  0.25000000  0.78196233  1
  Li  Li29  1  0.13533991  0.75000000  0.28196233  1
  Li  Li30  1  0.63533991  0.75000000  0.21803767  1
  Li  Li31  1  0.86466009  0.25000000  0.71803767  1
  Li  Li32  1  0.61389583  0.58223705  0.27143234  1
  Li  Li33  1  -0.11389583  -0.58223705  0.77143234  1
  Li  Li34  1  -0.61389583  1.08223705  -0.27143234  1
  Li  Li35  1  1.11389583  -0.08223705  0.22856766  1
  Li  Li36  1  -0.61389583  -0.58223705  -0.27143234  1
  Li  Li37  1  1.11389583  0.58223705  0.22856766  1
  Li  Li38  1  0.61389583  -0.08223705  0.27143234  1
  Li  Li39  1  -0.11389583  1.08223705  0.77143234  1
  Li  Li40  1  0.00000000  0.00000000  0.50000000  1
  Li  Li41  1  0.50000000  0.00000000  -0.00000000  1
  Li  Li42  1  0.00000000  0.50000000  0.50000000  1
  Li  Li43  1  0.50000000  0.50000000  0.00000000  1
  Li  Li44  1  0.00000000  0.00000000  0.00000000  1
  Li  Li45  1  0.50000000  0.00000000  0.50000000  1
  Li  Li46  1  0.00000000  0.50000000  0.00000000  1
  Li  Li47  1  0.50000000  0.50000000  0.50000000  1
