# generated using pymatgen
data_LiF
_symmetry_space_group_name_H-M   'P 1'
_cell_length_a   7.78401714
_cell_length_b   10.54406868
_cell_length_c   7.28078549
_cell_angle_alpha   90.00000000
_cell_angle_beta   90.00000000
_cell_angle_gamma   90.00000000
_symmetry_Int_Tables_number   1
_chemical_formula_structural   LiF
_chemical_formula_sum   'Li24 F24'
_cell_volume   597.57200796
_cell_formula_units_Z   24
loop_
 _symmetry_equiv_pos_site_id
 _symmetry_equiv_pos_as_xyz
  1  'x, y, z'
loop_
 _atom_site_type_symbol
 _atom_site_label
 _atom_site_symmetry_multiplicity
 _atom_site_fract_x
 _atom_site_fract_y
 _atom_site_fract_z
 _atom_site_occupancy
  F  F0  1  0.75500148  0.52238832  0.53685720  1
  F  F1  1  0.74499852  0.47761168  0.03685720  1
  F  F2  1  0.24499852  0.02238832  0.46314280  1
  F  F3  1  0.25500148  0.97761168  0.96314280  1
  F  F4  1  0.24499852  0.47761168  0.46314280  1
  F  F5  1  0.25500148  0.52238832  0.96314280  1
  F  F6  1  0.75500148  0.97761168  0.53685720  1
  F  F7  1  0.74499852  0.02238832  0.03685720  1
  F  F8  1  0.71082891  0.25000000  0.95921441  1
  F  F9  1  0.78917109  0.75000000  0.45921441  1
  F  F10  1  0.28917109  0.75000000  0.04078559  1
  F  F11  1  0.21082891  0.25000000  0.54078559  1
  F  F12  1  0.00000000  0.00000000  0.50000000  1
  F  F13  1  0.50000000  0.00000000  0.00000000  1
  F  F14  1  0.00000000  0.50000000  0.50000000  1
  F  F15  1  0.50000000  0.50000000  -0.00000000  1
  F  F16  1  0.03640756  0.17578939  0.07196720  1
  F  F17  1  0.46359244  0.82421061  0.57196720  1
  F  F18  1  0.96359244  0.67578939  0.92803280  1
  F  F19  1  0.53640756  0.32421061  0.42803280  1
  F  F20  1  0.96359244  0.82421061  0.92803280  1
  F  F21  1  0.53640756  0.17578939  0.42803280  1
  F  F22  1  0.03640756  0.32421061  0.07196720  1
  F  F23  1  0.46359244  0.67578939  0.57196720  1
  Li  Li24  1  0.73988821  0.63925278  0.99973767  1
  Li  Li25  1  -0.23988821  -0.63925278  1.49973767  1
  Li  Li26  1  -0.73988821  1.13925278  -0.99973767  1
  Li  Li27  1  1.23988821  -0.13925278  -0.49973767  1
  Li  Li28  1  -0.73988821  -0.63925278  -0.99973767  1
  Li  Li29  1  1.23988821  0.63925278  -0.49973767  1
  Li  Li30  1  0.73988821  -0.13925278  0.99973767  1
  Li  Li31  1  -0.23988821  1.13925278  1.49973767  1
  Li  Li32  1  0.99801382  0.88898507  0.77218442  1
  Li  Li33  1  0.50198618  0.11101493  0.27218442  1
  Li  Li34  1  0.00198618  0.38898507  0.22781558  1
  Li  Li35  1  0.49801382  0.61101493  0.72781558  1
  Li  Li36  1  0.00198618  0.11101493  0.22781558  1
  Li  Li37  1  0.49801382  0.88898507  0.72781558  1
  Li  Li38  1  0.99801382  0.61101493  0.77218442  1
  Li  Li39  1  0.50198618  0.38898507  0.27218442  1
  Li  Li40  1  0.15567034  0.83169593  0.87385866  1
  Li  Li41  1  0.34432966  0.16830407  0.37385866  1
  Li  Li42  1  0.84432966  0.33169593  0.12614134  1
  Li  Li43  1  0.65567034  0.66830407  0.62614134  1
  Li  Li44  1  0.84432966  0.16830407  0.12614134  1
  Li  Li45  1  0.65567034  0.83169593  0.62614134  1
  Li  Li46  1  0.15567034  0.66830407  0.87385866  1
  Li  Li47  1  0.34432966  0.33169593  0.37385866  1
