# generated using pymatgen
data_LiF
_symmetry_space_group_name_H-M   'P 1'
_cell_length_a   8.85895870
_cell_length_b   8.85895870
_cell_length_c   7.71727384
_cell_angle_alpha   90.00000000
_cell_angle_beta   90.00000000
_cell_angle_gamma   120.00000000
_symmetry_Int_Tables_number   1
_chemical_formula_structural   LiF
_chemical_formula_sum   'Li21 F21'
_cell_volume   524.51739682
_cell_formula_units_Z   21
loop_
 _symmetry_equiv_pos_site_id
 _symmetry_equiv_pos_as_xyz
  1  'x, y, z'
loop_
 _atom_site_type_symbol
 _atom_site_label
 _atom_site_symmetry_multiplicity
 _atom_site_fract_x
 _atom_site_fract_y
 _atom_site_fract_z
 _atom_site_occupancy
  F  F0  1  0.89018693  0.66580969  0.96119100  1
  F  F1  1  0.33419031  0.22437724  0.96119100  1
  F  F2  1  0.77562276  0.10981307  0.96119100  1
  F  F3  1  0.33419031  0.10981307  0.03880900  1
  F  F4  1  0.77562276  0.66580969  0.03880900  1
  F  F5  1  0.89018693  0.22437724  0.03880900  1
  F  F6  1  0.51135848  0.48864152  0.50000000  1
  F  F7  1  0.51135848  0.02271696  0.50000000  1
  F  F8  1  0.97728304  0.48864152  0.50000000  1
  F  F9  1  0.65454339  0.08772876  0.61825535  1
  F  F10  1  0.91227124  0.56681464  0.61825535  1
  F  F11  1  0.43318536  0.34545661  0.61825535  1
  F  F12  1  0.91227124  0.34545661  0.38174465  1
  F  F13  1  0.43318536  0.08772876  0.38174465  1
  F  F14  1  0.65454339  0.56681464  0.38174465  1
  F  F15  1  0.33333333  0.66666667  0.00000000  1
  F  F16  1  0.02952930  0.97047070  0.00000000  1
  F  F17  1  0.02952930  0.05905861  0.00000000  1
  F  F18  1  0.94094139  0.97047070  0.00000000  1
  F  F19  1  0.33333333  0.66666667  0.33198990  1
  F  F20  1  0.33333333  0.66666667  0.66801010  1
  Li  Li21  1  0.38038552  0.37024808  0.32062980  1
  Li  Li22  1  -0.37024808  0.01013745  0.32062980  1
  Li  Li23  1  -0.01013745  -0.38038552  0.32062980  1
  Li  Li24  1  -0.37024808  -0.38038552  -0.32062980  1
  Li  Li25  1  -0.01013745  0.37024808  -0.32062980  1
  Li  Li26  1  0.38038552  0.01013745  -0.32062980  1
  Li  Li27  1  0.00000000  0.00000000  0.50000000  1
  Li  Li28  1  0.24673069  0.10018681  0.38770619  1
  Li  Li29  1  0.89981319  0.14654389  0.38770619  1
  Li  Li30  1  0.85345611  0.75326931  0.38770619  1
  Li  Li31  1  0.89981319  0.75326931  0.61229381  1
  Li  Li32  1  0.85345611  0.10018681  0.61229381  1
  Li  Li33  1  0.24673069  0.14654389  0.61229381  1
  Li  Li34  1  0.65231255  0.69709444  0.83156385  1
  Li  Li35  1  0.30290556  0.95521811  0.83156385  1
  Li  Li36  1  0.04478189  0.34768745  0.83156385  1
  Li  Li37  1  0.30290556  0.34768745  0.16843615  1
  Li  Li38  1  0.04478189  0.69709444  0.16843615  1
  Li  Li39  1  0.65231255  0.95521811  0.16843615  1
  Li  Li40  1  0.33333333  0.66666667  0.50000000  1
  Li  Li41  1  0.66666667  0.33333333  0.50000000  1
