# generated using pymatgen
data_LiF
_symmetry_space_group_name_H-M   'P 1'
_cell_length_a   16.52530246
_cell_length_b   16.52530246
_cell_length_c   8.30462256
_cell_angle_alpha   90.00000000
_cell_angle_beta   90.00000000
_cell_angle_gamma   90.00000000
_symmetry_Int_Tables_number   1
_chemical_formula_structural   LiF
_chemical_formula_sum   'Li64 F64'
_cell_volume   2267.87301036
_cell_formula_units_Z   64
loop_
 _symmetry_equiv_pos_site_id
 _symmetry_equiv_pos_as_xyz
  1  'x, y, z'
loop_
 _atom_site_type_symbol
 _atom_site_label
 _atom_site_symmetry_multiplicity
 _atom_site_fract_x
 _atom_site_fract_y
 _atom_site_fract_z
 _atom_site_occupancy
  F  F0  1  0.85490271  0.64331179  0.15838464  1
  F  F1  1  0.64509729  0.35668821  0.65838464  1
  F  F2  1  0.60668821  0.60490271  0.40838464  1
  F  F3  1  0.89331179  0.39509729  0.90838464  1
  F  F4  1  0.64509729  0.64331179  0.84161536  1
  F  F5  1  0.85490271  0.35668821  0.34161536  1
  F  F6  1  0.89331179  0.60490271  0.59161536  1
  F  F7  1  0.60668821  0.39509729  0.09161536  1
  F  F8  1  0.14509729  0.35668821  0.84161536  1
  F  F9  1  0.35490271  0.64331179  0.34161536  1
  F  F10  1  0.39331179  0.39509729  0.59161536  1
  F  F11  1  0.10668821  0.60490271  0.09161536  1
  F  F12  1  0.35490271  0.35668821  0.15838464  1
  F  F13  1  0.14509729  0.64331179  0.65838464  1
  F  F14  1  0.10668821  0.39509729  0.40838464  1
  F  F15  1  0.39331179  0.60490271  0.90838464  1
  F  F16  1  0.35490271  0.14331179  0.65838464  1
  F  F17  1  0.14509729  0.85668821  0.15838464  1
  F  F18  1  0.10668821  0.10490271  0.90838464  1
  F  F19  1  0.39331179  0.89509729  0.40838464  1
  F  F20  1  0.14509729  0.14331179  0.34161536  1
  F  F21  1  0.35490271  0.85668821  0.84161536  1
  F  F22  1  0.39331179  0.10490271  0.09161536  1
  F  F23  1  0.10668821  0.89509729  0.59161536  1
  F  F24  1  0.64509729  0.85668821  0.34161536  1
  F  F25  1  0.85490271  0.14331179  0.84161536  1
  F  F26  1  0.89331179  0.89509729  0.09161536  1
  F  F27  1  0.60668821  0.10490271  0.59161536  1
  F  F28  1  0.85490271  0.85668821  0.65838464  1
  F  F29  1  0.64509729  0.14331179  0.15838464  1
  F  F30  1  0.60668821  0.89509729  0.90838464  1
  F  F31  1  0.89331179  0.10490271  0.40838464  1
  F  F32  1  0.22900448  0.48280059  0.79879401  1
  F  F33  1  0.27099552  0.51719941  0.29879401  1
  F  F34  1  0.76719941  0.97900448  0.04879401  1
  F  F35  1  0.73280059  0.02099552  0.54879401  1
  F  F36  1  0.27099552  0.48280059  0.20120599  1
  F  F37  1  0.22900448  0.51719941  0.70120599  1
  F  F38  1  0.73280059  0.97900448  0.95120599  1
  F  F39  1  0.76719941  0.02099552  0.45120599  1
  F  F40  1  0.77099552  0.51719941  0.20120599  1
  F  F41  1  0.72900448  0.48280059  0.70120599  1
  F  F42  1  0.23280059  0.02099552  0.95120599  1
  F  F43  1  0.26719941  0.97900448  0.45120599  1
  F  F44  1  0.72900448  0.51719941  0.79879401  1
  F  F45  1  0.77099552  0.48280059  0.29879401  1
  F  F46  1  0.26719941  0.02099552  0.04879401  1
  F  F47  1  0.23280059  0.97900448  0.54879401  1
  F  F48  1  0.72900448  0.98280059  0.29879401  1
  F  F49  1  0.77099552  0.01719941  0.79879401  1
  F  F50  1  0.26719941  0.47900448  0.54879401  1
  F  F51  1  0.23280059  0.52099552  0.04879401  1
  F  F52  1  0.77099552  0.98280059  0.70120599  1
  F  F53  1  0.72900448  0.01719941  0.20120599  1
  F  F54  1  0.23280059  0.47900448  0.45120599  1
  F  F55  1  0.26719941  0.52099552  0.95120599  1
  F  F56  1  0.27099552  0.01719941  0.70120599  1
  F  F57  1  0.22900448  0.98280059  0.20120599  1
  F  F58  1  0.73280059  0.52099552  0.45120599  1
  F  F59  1  0.76719941  0.47900448  0.95120599  1
  F  F60  1  0.22900448  0.01719941  0.29879401  1
  F  F61  1  0.27099552  0.98280059  0.79879401  1
  F  F62  1  0.76719941  0.52099552  0.54879401  1
  F  F63  1  0.73280059  0.47900448  0.04879401  1
  Li  Li64  1  0.07539065  0.83240672  0.22221619  1
  Li  Li65  1  0.42460935  -0.83240672  0.72221619  1
  Li  Li66  1  -0.58240672  0.82539065  0.47221619  1
  Li  Li67  1  1.08240672  0.17460935  0.97221619  1
  Li  Li68  1  0.42460935  0.83240672  -0.22221619  1
  Li  Li69  1  0.07539065  -0.83240672  0.27778381  1
  Li  Li70  1  1.08240672  0.82539065  0.52778381  1
  Li  Li71  1  -0.58240672  0.17460935  0.02778381  1
  Li  Li72  1  -0.07539065  -0.83240672  -0.22221619  1
  Li  Li73  1  0.57539065  0.83240672  0.27778381  1
  Li  Li74  1  1.58240672  0.17460935  0.52778381  1
  Li  Li75  1  -0.08240672  0.82539065  0.02778381  1
  Li  Li76  1  0.57539065  -0.83240672  0.22221619  1
  Li  Li77  1  -0.07539065  0.83240672  0.72221619  1
  Li  Li78  1  -0.08240672  0.17460935  0.47221619  1
  Li  Li79  1  1.58240672  0.82539065  0.97221619  1
  Li  Li80  1  0.57539065  1.33240672  0.72221619  1
  Li  Li81  1  0.92460935  -0.33240672  1.22221619  1
  Li  Li82  1  -0.08240672  1.32539065  0.97221619  1
  Li  Li83  1  1.58240672  0.67460935  1.47221619  1
  Li  Li84  1  0.92460935  1.33240672  0.27778381  1
  Li  Li85  1  0.57539065  -0.33240672  0.77778381  1
  Li  Li86  1  1.58240672  1.32539065  1.02778381  1
  Li  Li87  1  -0.08240672  0.67460935  0.52778381  1
  Li  Li88  1  0.42460935  -0.33240672  0.27778381  1
  Li  Li89  1  1.07539065  1.33240672  0.77778381  1
  Li  Li90  1  2.08240672  0.67460935  1.02778381  1
  Li  Li91  1  0.41759328  1.32539065  0.52778381  1
  Li  Li92  1  1.07539065  -0.33240672  0.72221619  1
  Li  Li93  1  0.42460935  1.33240672  1.22221619  1
  Li  Li94  1  0.41759328  0.67460935  0.97221619  1
  Li  Li95  1  2.08240672  1.32539065  1.47221619  1
  Li  Li96  1  0.00000000  0.25000000  0.37500000  1
  Li  Li97  1  0.00000000  0.75000000  0.62500000  1
  Li  Li98  1  0.50000000  0.25000000  0.62500000  1
  Li  Li99  1  0.50000000  0.75000000  0.37500000  1
  Li  Li100  1  0.50000000  0.75000000  0.87500000  1
  Li  Li101  1  0.50000000  0.25000000  0.12500000  1
  Li  Li102  1  0.00000000  0.75000000  0.12500000  1
  Li  Li103  1  0.00000000  0.25000000  0.87500000  1
  Li  Li104  1  0.00000000  0.25000000  0.12500000  1
  Li  Li105  1  0.00000000  0.75000000  0.37500000  1
  Li  Li106  1  0.00000000  0.75000000  0.87500000  1
  Li  Li107  1  0.00000000  0.25000000  0.62500000  1
  Li  Li108  1  0.50000000  0.75000000  0.62500000  1
  Li  Li109  1  0.50000000  0.25000000  0.87500000  1
  Li  Li110  1  0.50000000  0.25000000  0.37500000  1
  Li  Li111  1  0.50000000  0.75000000  0.12500000  1
  Li  Li112  1  0.00000000  0.00000000  0.00000000  1
  Li  Li113  1  0.50000000  0.00000000  0.50000000  1
  Li  Li114  1  0.25000000  0.75000000  0.25000000  1
  Li  Li115  1  0.25000000  0.25000000  0.75000000  1
  Li  Li116  1  0.50000000  0.00000000  0.00000000  1
  Li  Li117  1  0.00000000  0.00000000  0.50000000  1
  Li  Li118  1  0.25000000  0.75000000  0.75000000  1
  Li  Li119  1  0.25000000  0.25000000  0.25000000  1
  Li  Li120  1  0.50000000  0.50000000  0.50000000  1
  Li  Li121  1  0.00000000  0.50000000  0.00000000  1
  Li  Li122  1  0.75000000  0.25000000  0.75000000  1
  Li  Li123  1  0.75000000  0.75000000  0.25000000  1
  Li  Li124  1  0.00000000  0.50000000  0.50000000  1
  Li  Li125  1  0.50000000  0.50000000  0.00000000  1
  Li  Li126  1  0.75000000  0.25000000  0.25000000  1
  Li  Li127  1  0.75000000  0.75000000  0.75000000  1
