# generated using pymatgen
data_LiF
_symmetry_space_group_name_H-M   'P 1'
_cell_length_a   8.89219380
_cell_length_b   8.89219380
_cell_length_c   13.00122347
_cell_angle_alpha   90.00000000
_cell_angle_beta   90.00000000
_cell_angle_gamma   120.00000000
_symmetry_Int_Tables_number   1
_chemical_formula_structural   LiF
_chemical_formula_sum   'Li26 F26'
_cell_volume   890.29245608
_cell_formula_units_Z   26
loop_
 _symmetry_equiv_pos_site_id
 _symmetry_equiv_pos_as_xyz
  1  'x, y, z'
loop_
 _atom_site_type_symbol
 _atom_site_label
 _atom_site_symmetry_multiplicity
 _atom_site_fract_x
 _atom_site_fract_y
 _atom_site_fract_z
 _atom_site_occupancy
  F  F0  1  0.40426990  0.65757232  0.17637401  1
  F  F1  1  0.34242768  0.74669759  0.17637401  1
  F  F2  1  0.25330241  0.59573010  0.17637401  1
  F  F3  1  0.34242768  0.59573010  0.82362599  1
  F  F4  1  0.25330241  0.65757232  0.82362599  1
  F  F5  1  0.40426990  0.74669759  0.82362599  1
  F  F6  1  0.73258005  0.58853775  0.75257179  1
  F  F7  1  0.41146225  0.14404230  0.75257179  1
  F  F8  1  0.85595770  0.26741995  0.75257179  1
  F  F9  1  0.41146225  0.26741995  0.24742821  1
  F  F10  1  0.85595770  0.58853775  0.24742821  1
  F  F11  1  0.73258005  0.14404230  0.24742821  1
  F  F12  1  0.49639987  0.94084174  0.11726944  1
  F  F13  1  0.05915826  0.55555813  0.11726944  1
  F  F14  1  0.44444187  0.50360013  0.11726944  1
  F  F15  1  0.05915826  0.50360013  0.88273056  1
  F  F16  1  0.44444187  0.94084174  0.88273056  1
  F  F17  1  0.49639987  0.55555813  0.88273056  1
  F  F18  1  0.23834948  0.89951476  0.83993229  1
  F  F19  1  0.10048524  0.33883472  0.83993229  1
  F  F20  1  0.66116528  0.76165052  0.83993229  1
  F  F21  1  0.10048524  0.76165052  0.16006771  1
  F  F22  1  0.66116528  0.89951476  0.16006771  1
  F  F23  1  0.23834948  0.33883472  0.16006771  1
  F  F24  1  0.66666667  0.33333333  0.19058666  1
  F  F25  1  0.66666667  0.33333333  0.80941334  1
  Li  Li26  1  0.26504583  0.73495417  0.50000000  1
  Li  Li27  1  0.26504583  0.53009165  0.50000000  1
  Li  Li28  1  0.46990835  0.73495417  0.50000000  1
  Li  Li29  1  0.10389808  0.26755805  0.73405885  1
  Li  Li30  1  -0.26755805  -0.16365997  0.73405885  1
  Li  Li31  1  0.16365997  -0.10389808  0.73405885  1
  Li  Li32  1  -0.26755805  -0.10389808  -0.73405885  1
  Li  Li33  1  0.16365997  0.26755805  -0.73405885  1
  Li  Li34  1  0.10389808  -0.16365997  -0.73405885  1
  Li  Li35  1  0.00000000  0.00000000  0.50000000  1
  Li  Li36  1  0.91766370  0.36437222  0.44398814  1
  Li  Li37  1  0.63562778  0.55329148  0.44398814  1
  Li  Li38  1  0.44670852  0.08233630  0.44398814  1
  Li  Li39  1  0.63562778  0.08233630  0.55601186  1
  Li  Li40  1  0.44670852  0.36437222  0.55601186  1
  Li  Li41  1  0.91766370  0.55329148  0.55601186  1
  Li  Li42  1  0.12613440  0.43253489  0.88794393  1
  Li  Li43  1  0.56746511  0.69359951  0.88794393  1
  Li  Li44  1  0.30640049  0.87386560  0.88794393  1
  Li  Li45  1  0.56746511  0.87386560  0.11205607  1
  Li  Li46  1  0.30640049  0.43253489  0.11205607  1
  Li  Li47  1  0.12613440  0.69359951  0.11205607  1
  Li  Li48  1  0.00000000  0.00000000  0.00000000  1
  Li  Li49  1  0.33333333  0.66666667  0.00000000  1
  Li  Li50  1  0.00000000  0.00000000  0.33646379  1
  Li  Li51  1  0.00000000  0.00000000  0.66353621  1
