# generated using pymatgen
data_Li3Y2(P2Se)2
_symmetry_space_group_name_H-M   'P 1'
_cell_length_a   5.62437621
_cell_length_b   5.96769331
_cell_length_c   7.44072148
_cell_angle_alpha   93.58936935
_cell_angle_beta   97.81690023
_cell_angle_gamma   104.41707011
_symmetry_Int_Tables_number   1
_chemical_formula_structural   Li3Y2(P2Se)2
_chemical_formula_sum   'Li3 Y2 P4 Se2'
_cell_volume   238.41799051
_cell_formula_units_Z   1
loop_
 _symmetry_equiv_pos_site_id
 _symmetry_equiv_pos_as_xyz
  1  'x, y, z'
loop_
 _atom_site_type_symbol
 _atom_site_label
 _atom_site_symmetry_multiplicity
 _atom_site_fract_x
 _atom_site_fract_y
 _atom_site_fract_z
 _atom_site_occupancy
  Se  Se0  1  0.00000000  0.00000000  0.00000000  1
  Se  Se1  1  0.33300000  0.66700000  0.25000000  1
  P  P2  1  0.66700000  0.33300000  0.50000000  1
  P  P3  1  0.00000000  0.00000000  0.75000000  1
  P  P4  1  0.88926227  0.09667724  0.32551337  1
  P  P5  1  0.71692481  0.60929961  0.58954050  1
  Li  Li6  1  0.97517373  0.76410986  0.06383669  1
  Li  Li7  1  0.64109413  0.76254996  0.51686131  1
  Li  Li8  1  0.94170054  0.28681513  0.29927735  1
  Y  Y9  1  0.48680640  0.90412719  0.04902796  1
  Y  Y10  1  0.76766640  0.35978349  0.53252225  1
