# generated using pymatgen
data_LiF
_symmetry_space_group_name_H-M   'P 1'
_cell_length_a   13.12769179
_cell_length_b   8.22583169
_cell_length_c   20.34737851
_cell_angle_alpha   90.00000000
_cell_angle_beta   90.00000000
_cell_angle_gamma   90.00000000
_symmetry_Int_Tables_number   1
_chemical_formula_structural   LiF
_chemical_formula_sum   'Li78 F78'
_cell_volume   2197.23574311
_cell_formula_units_Z   78
loop_
 _symmetry_equiv_pos_site_id
 _symmetry_equiv_pos_as_xyz
  1  'x, y, z'
loop_
 _atom_site_type_symbol
 _atom_site_label
 _atom_site_symmetry_multiplicity
 _atom_site_fract_x
 _atom_site_fract_y
 _atom_site_fract_z
 _atom_site_occupancy
  F  F0  1  0.84819797  0.08812604  -0.00000000  1
  F  F1  1  0.15180203  0.91187396  0.00000000  1
  F  F2  1  0.65180203  0.58812604  0.00000000  1
  F  F3  1  0.34819797  0.41187396  0.00000000  1
  F  F4  1  0.63722806  0.47000976  0.14637732  1
  F  F5  1  0.36277194  0.52999024  0.14637732  1
  F  F6  1  0.86277194  0.97000976  0.85362268  1
  F  F7  1  0.13722806  0.02999024  0.85362268  1
  F  F8  1  0.36277194  0.52999024  0.85362268  1
  F  F9  1  0.63722806  0.47000976  0.85362268  1
  F  F10  1  0.13722806  0.02999024  0.14637732  1
  F  F11  1  0.86277194  0.97000976  0.14637732  1
  F  F12  1  0.49288153  0.87686780  0.00000000  1
  F  F13  1  0.50711847  0.12313220  -0.00000000  1
  F  F14  1  0.00711847  0.37686780  0.00000000  1
  F  F15  1  0.99288153  0.62313220  0.00000000  1
  F  F16  1  0.95199930  0.27714937  0.43952677  1
  F  F17  1  0.04800070  0.72285063  0.43952677  1
  F  F18  1  0.54800070  0.77714937  0.56047323  1
  F  F19  1  0.45199930  0.22285063  0.56047323  1
  F  F20  1  0.04800070  0.72285063  0.56047323  1
  F  F21  1  0.95199930  0.27714937  0.56047323  1
  F  F22  1  0.45199930  0.22285063  0.43952677  1
  F  F23  1  0.54800070  0.77714937  0.43952677  1
  F  F24  1  0.00000000  0.50000000  0.50000000  1
  F  F25  1  0.50000000  0.00000000  0.50000000  1
  F  F26  1  0.00000000  0.50000000  0.06351937  1
  F  F27  1  0.50000000  0.00000000  0.93648063  1
  F  F28  1  0.00000000  0.50000000  0.93648063  1
  F  F29  1  0.50000000  0.00000000  0.06351937  1
  F  F30  1  0.05040419  0.30886909  0.06322983  1
  F  F31  1  0.94959581  0.69113091  0.06322983  1
  F  F32  1  0.44959581  0.80886909  0.93677017  1
  F  F33  1  0.55040419  0.19113091  0.93677017  1
  F  F34  1  0.94959581  0.69113091  0.93677017  1
  F  F35  1  0.05040419  0.30886909  0.93677017  1
  F  F36  1  0.55040419  0.19113091  0.06322983  1
  F  F37  1  0.44959581  0.80886909  0.06322983  1
  F  F38  1  0.27868527  0.09898842  0.03713434  1
  F  F39  1  0.72131473  0.90101158  0.03713434  1
  F  F40  1  0.22131473  0.59898842  0.96286566  1
  F  F41  1  0.77868527  0.40101158  0.96286566  1
  F  F42  1  0.72131473  0.90101158  0.96286566  1
  F  F43  1  0.27868527  0.09898842  0.96286566  1
  F  F44  1  0.77868527  0.40101158  0.03713434  1
  F  F45  1  0.22131473  0.59898842  0.03713434  1
  F  F46  1  0.23144234  0.63274546  0.12071483  1
  F  F47  1  0.76855766  0.36725454  0.12071483  1
  F  F48  1  0.26855766  0.13274546  0.87928517  1
  F  F49  1  0.73144234  0.86725454  0.87928517  1
  F  F50  1  0.76855766  0.36725454  0.87928517  1
  F  F51  1  0.23144234  0.63274546  0.87928517  1
  F  F52  1  0.73144234  0.86725454  0.12071483  1
  F  F53  1  0.26855766  0.13274546  0.12071483  1
  F  F54  1  0.09429786  0.91830336  0.33365129  1
  F  F55  1  0.90570214  0.08169664  0.33365129  1
  F  F56  1  0.40570214  0.41830336  0.66634871  1
  F  F57  1  0.59429786  0.58169664  0.66634871  1
  F  F58  1  0.90570214  0.08169664  0.66634871  1
  F  F59  1  0.09429786  0.91830336  0.66634871  1
  F  F60  1  0.59429786  0.58169664  0.33365129  1
  F  F61  1  0.40570214  0.41830336  0.33365129  1
  F  F62  1  0.91517818  0.97912080  0.02933199  1
  F  F63  1  0.08482182  0.02087920  0.02933199  1
  F  F64  1  0.58482182  0.47912080  0.97066801  1
  F  F65  1  0.41517818  0.52087920  0.97066801  1
  F  F66  1  0.08482182  0.02087920  0.97066801  1
  F  F67  1  0.91517818  0.97912080  0.97066801  1
  F  F68  1  0.41517818  0.52087920  0.02933199  1
  F  F69  1  0.58482182  0.47912080  0.02933199  1
  F  F70  1  0.36857435  0.74805555  0.95541473  1
  F  F71  1  0.63142565  0.25194445  0.95541473  1
  F  F72  1  0.13142565  0.24805555  0.04458527  1
  F  F73  1  0.86857435  0.75194445  0.04458527  1
  F  F74  1  0.63142565  0.25194445  0.04458527  1
  F  F75  1  0.36857435  0.74805555  0.04458527  1
  F  F76  1  0.86857435  0.75194445  0.95541473  1
  F  F77  1  0.13142565  0.24805555  0.95541473  1
  Li  Li78  1  0.42136651  0.53159156  0.68720452  1
  Li  Li79  1  -0.42136651  -0.53159156  0.68720452  1
  Li  Li80  1  0.07863349  1.03159156  -0.68720452  1
  Li  Li81  1  0.92136651  -0.03159156  -0.68720452  1
  Li  Li82  1  -0.42136651  -0.53159156  -0.68720452  1
  Li  Li83  1  0.42136651  0.53159156  -0.68720452  1
  Li  Li84  1  0.92136651  -0.03159156  0.68720452  1
  Li  Li85  1  0.07863349  1.03159156  0.68720452  1
  Li  Li86  1  0.87045651  0.93944489  0.50000000  1
  Li  Li87  1  0.12954349  0.06055511  0.50000000  1
  Li  Li88  1  0.62954349  0.43944489  0.50000000  1
  Li  Li89  1  0.37045651  0.56055511  0.50000000  1
  Li  Li90  1  0.04248215  0.42175194  0.88874424  1
  Li  Li91  1  0.95751785  0.57824806  0.88874424  1
  Li  Li92  1  0.45751785  0.92175194  0.11125576  1
  Li  Li93  1  0.54248215  0.07824806  0.11125576  1
  Li  Li94  1  0.95751785  0.57824806  0.11125576  1
  Li  Li95  1  0.04248215  0.42175194  0.11125576  1
  Li  Li96  1  0.54248215  0.07824806  0.88874424  1
  Li  Li97  1  0.45751785  0.92175194  0.88874424  1
  Li  Li98  1  0.23568153  0.06317163  0.50000000  1
  Li  Li99  1  0.76431847  0.93682837  0.50000000  1
  Li  Li100  1  0.26431847  0.56317163  0.50000000  1
  Li  Li101  1  0.73568153  0.43682837  0.50000000  1
  Li  Li102  1  0.32128261  0.35209257  0.14108315  1
  Li  Li103  1  0.67871739  0.64790743  0.14108315  1
  Li  Li104  1  0.17871739  0.85209257  0.85891685  1
  Li  Li105  1  0.82128261  0.14790743  0.85891685  1
  Li  Li106  1  0.67871739  0.64790743  0.85891685  1
  Li  Li107  1  0.32128261  0.35209257  0.85891685  1
  Li  Li108  1  0.82128261  0.14790743  0.14108315  1
  Li  Li109  1  0.17871739  0.85209257  0.14108315  1
  Li  Li110  1  0.00000000  0.00000000  0.00000000  1
  Li  Li111  1  0.50000000  0.50000000  0.00000000  1
  Li  Li112  1  0.39157566  0.67166194  0.19760991  1
  Li  Li113  1  0.60842434  0.32833806  0.19760991  1
  Li  Li114  1  0.10842434  0.17166194  0.80239009  1
  Li  Li115  1  0.89157566  0.82833806  0.80239009  1
  Li  Li116  1  0.60842434  0.32833806  0.80239009  1
  Li  Li117  1  0.39157566  0.67166194  0.80239009  1
  Li  Li118  1  0.89157566  0.82833806  0.19760991  1
  Li  Li119  1  0.10842434  0.17166194  0.19760991  1
  Li  Li120  1  0.14819835  0.77572517  0.64337097  1
  Li  Li121  1  0.85180165  0.22427483  0.64337097  1
  Li  Li122  1  0.35180165  0.27572517  0.35662903  1
  Li  Li123  1  0.64819835  0.72427483  0.35662903  1
  Li  Li124  1  0.85180165  0.22427483  0.35662903  1
  Li  Li125  1  0.14819835  0.77572517  0.35662903  1
  Li  Li126  1  0.64819835  0.72427483  0.64337097  1
  Li  Li127  1  0.35180165  0.27572517  0.64337097  1
  Li  Li128  1  0.85124892  0.91794101  0.00000000  1
  Li  Li129  1  0.14875108  0.08205899  -0.00000000  1
  Li  Li130  1  0.64875108  0.41794101  -0.00000000  1
  Li  Li131  1  0.35124892  0.58205899  0.00000000  1
  Li  Li132  1  0.53287912  0.92581783  0.67583258  1
  Li  Li133  1  0.46712088  0.07418217  0.67583258  1
  Li  Li134  1  0.96712088  0.42581783  0.32416742  1
  Li  Li135  1  0.03287912  0.57418217  0.32416742  1
  Li  Li136  1  0.46712088  0.07418217  0.32416742  1
  Li  Li137  1  0.53287912  0.92581783  0.32416742  1
  Li  Li138  1  0.03287912  0.57418217  0.67583258  1
  Li  Li139  1  0.96712088  0.42581783  0.67583258  1
  Li  Li140  1  0.00000000  0.00000000  0.72270116  1
  Li  Li141  1  0.50000000  0.50000000  0.27729884  1
  Li  Li142  1  0.00000000  0.00000000  0.27729884  1
  Li  Li143  1  0.50000000  0.50000000  0.72270116  1
  Li  Li144  1  0.00489022  0.09446188  0.41096619  1
  Li  Li145  1  0.99510978  0.90553812  0.41096619  1
  Li  Li146  1  0.49510978  0.59446188  0.58903381  1
  Li  Li147  1  0.50489022  0.40553812  0.58903381  1
  Li  Li148  1  0.99510978  0.90553812  0.58903381  1
  Li  Li149  1  0.00489022  0.09446188  0.58903381  1
  Li  Li150  1  0.50489022  0.40553812  0.41096619  1
  Li  Li151  1  0.49510978  0.59446188  0.41096619  1
  Li  Li152  1  0.00000000  0.50000000  0.00000000  1
  Li  Li153  1  0.50000000  0.00000000  0.00000000  1
  Li  Li154  1  0.00000000  0.00000000  0.50000000  1
  Li  Li155  1  0.50000000  0.50000000  0.50000000  1
