# generated using pymatgen
data_LiF
_symmetry_space_group_name_H-M   'P 1'
_cell_length_a   16.94544331
_cell_length_b   16.94544331
_cell_length_c   4.73987235
_cell_angle_alpha   90.00000000
_cell_angle_beta   90.00000000
_cell_angle_gamma   120.00000000
_symmetry_Int_Tables_number   1
_chemical_formula_structural   LiF
_chemical_formula_sum   'Li49 F49'
_cell_volume   1178.69963029
_cell_formula_units_Z   49
loop_
 _symmetry_equiv_pos_site_id
 _symmetry_equiv_pos_as_xyz
  1  'x, y, z'
loop_
 _atom_site_type_symbol
 _atom_site_label
 _atom_site_symmetry_multiplicity
 _atom_site_fract_x
 _atom_site_fract_y
 _atom_site_fract_z
 _atom_site_occupancy
  F  F0  1  0.48528325  0.59808218  0.28137164  1
  F  F1  1  0.40191782  0.88720107  0.28137164  1
  F  F2  1  0.11279893  0.51471675  0.28137164  1
  F  F3  1  0.40191782  0.51471675  0.71862836  1
  F  F4  1  0.11279893  0.59808218  0.71862836  1
  F  F5  1  0.48528325  0.88720107  0.71862836  1
  F  F6  1  0.73576492  0.36598019  0.80358459  1
  F  F7  1  0.63401981  0.36978473  0.80358459  1
  F  F8  1  0.63021527  0.26423508  0.80358459  1
  F  F9  1  0.63401981  0.26423508  0.19641541  1
  F  F10  1  0.63021527  0.36598019  0.19641541  1
  F  F11  1  0.73576492  0.36978473  0.19641541  1
  F  F12  1  0.61712770  0.90178026  0.51581889  1
  F  F13  1  0.09821974  0.71534745  0.51581889  1
  F  F14  1  0.28465255  0.38287230  0.51581889  1
  F  F15  1  0.09821974  0.38287230  0.48418111  1
  F  F16  1  0.28465255  0.90178026  0.48418111  1
  F  F17  1  0.61712770  0.71534745  0.48418111  1
  F  F18  1  0.64968463  0.12449421  0.17430305  1
  F  F19  1  0.87550579  0.52519041  0.17430305  1
  F  F20  1  0.47480959  0.35031537  0.17430305  1
  F  F21  1  0.87550579  0.35031537  0.82569695  1
  F  F22  1  0.47480959  0.12449421  0.82569695  1
  F  F23  1  0.64968463  0.52519041  0.82569695  1
  F  F24  1  0.00000000  0.00000000  0.73274920  1
  F  F25  1  0.00000000  0.00000000  0.26725080  1
  F  F26  1  0.42853139  0.09275562  0.49265809  1
  F  F27  1  0.90724438  0.33577577  0.49265809  1
  F  F28  1  0.66422423  0.57146861  0.49265809  1
  F  F29  1  0.90724438  0.57146861  0.50734191  1
  F  F30  1  0.66422423  0.09275562  0.50734191  1
  F  F31  1  0.42853139  0.33577577  0.50734191  1
  F  F32  1  0.31340750  0.68659250  -0.00000000  1
  F  F33  1  0.31340750  0.62681500  0.00000000  1
  F  F34  1  0.37318500  0.68659250  0.00000000  1
  F  F35  1  0.69450357  0.40990172  0.90296485  1
  F  F36  1  0.59009828  0.28460185  0.90296485  1
  F  F37  1  0.71539815  0.30549643  0.90296485  1
  F  F38  1  0.59009828  0.30549643  0.09703515  1
  F  F39  1  0.71539815  0.40990172  0.09703515  1
  F  F40  1  0.69450357  0.28460185  0.09703515  1
  F  F41  1  0.47109397  0.33480729  0.43873389  1
  F  F42  1  0.66519271  0.13628668  0.43873389  1
  F  F43  1  0.86371332  0.52890603  0.43873389  1
  F  F44  1  0.66519271  0.52890603  0.56126611  1
  F  F45  1  0.86371332  0.33480729  0.56126611  1
  F  F46  1  0.47109397  0.13628668  0.56126611  1
  F  F47  1  0.33333333  0.66666667  0.26166195  1
  F  F48  1  0.33333333  0.66666667  0.73833805  1
  Li  Li49  1  0.20924679  0.67706252  0.35371818  1
  Li  Li50  1  -0.67706252  -0.46781573  0.35371818  1
  Li  Li51  1  0.46781573  -0.20924679  0.35371818  1
  Li  Li52  1  -0.67706252  -0.20924679  -0.35371818  1
  Li  Li53  1  0.46781573  0.67706252  -0.35371818  1
  Li  Li54  1  0.20924679  -0.46781573  -0.35371818  1
  Li  Li55  1  0.54592899  0.45407101  0.00000000  1
  Li  Li56  1  0.54592899  0.09185797  0.00000000  1
  Li  Li57  1  0.90814203  0.45407101  -0.00000000  1
  Li  Li58  1  0.35270484  0.43468497  0.09782109  1
  Li  Li59  1  0.56531503  0.91801987  0.09782109  1
  Li  Li60  1  0.08198013  0.64729516  0.09782109  1
  Li  Li61  1  0.56531503  0.64729516  0.90217891  1
  Li  Li62  1  0.08198013  0.43468497  0.90217891  1
  Li  Li63  1  0.35270484  0.91801987  0.90217891  1
  Li  Li64  1  0.30282230  0.69717770  0.50000000  1
  Li  Li65  1  0.30282230  0.60564459  0.50000000  1
  Li  Li66  1  0.39435541  0.69717770  0.50000000  1
  Li  Li67  1  0.39434186  0.43791980  0.71561771  1
  Li  Li68  1  0.56208020  0.95642206  0.71561771  1
  Li  Li69  1  0.04357794  0.60565814  0.71561771  1
  Li  Li70  1  0.56208020  0.60565814  0.28438229  1
  Li  Li71  1  0.04357794  0.43791980  0.28438229  1
  Li  Li72  1  0.39434186  0.95642206  0.28438229  1
  Li  Li73  1  0.00000000  0.00000000  0.50000000  1
  Li  Li74  1  0.19018063  0.05707007  0.12718411  1
  Li  Li75  1  0.94292993  0.13311056  0.12718411  1
  Li  Li76  1  0.86688944  0.80981937  0.12718411  1
  Li  Li77  1  0.94292993  0.80981937  0.87281589  1
  Li  Li78  1  0.86688944  0.05707007  0.87281589  1
  Li  Li79  1  0.19018063  0.13311056  0.87281589  1
  Li  Li80  1  0.39781274  0.33917181  0.82904000  1
  Li  Li81  1  0.66082819  0.05864093  0.82904000  1
  Li  Li82  1  0.94135907  0.60218726  0.82904000  1
  Li  Li83  1  0.66082819  0.60218726  0.17096000  1
  Li  Li84  1  0.94135907  0.33917181  0.17096000  1
  Li  Li85  1  0.39781274  0.05864093  0.17096000  1
  Li  Li86  1  0.75299975  0.11370951  0.99097694  1
  Li  Li87  1  0.88629049  0.63929024  0.99097694  1
  Li  Li88  1  0.36070976  0.24700025  0.99097694  1
  Li  Li89  1  0.88629049  0.24700025  0.00902306  1
  Li  Li90  1  0.36070976  0.11370951  0.00902306  1
  Li  Li91  1  0.75299975  0.63929024  0.00902306  1
  Li  Li92  1  0.66666667  0.33333333  0.00000000  1
  Li  Li93  1  0.61045446  0.38954554  -0.00000000  1
  Li  Li94  1  0.61045446  0.22090893  -0.00000000  1
  Li  Li95  1  0.77909107  0.38954554  0.00000000  1
  Li  Li96  1  0.00000000  0.00000000  0.00000000  1
  Li  Li97  1  0.66666667  0.33333333  0.50000000  1
