# generated using pymatgen
data_LiYP2Se
_symmetry_space_group_name_H-M   'P 1'
_cell_length_a   4.36222946
_cell_length_b   4.65904358
_cell_length_c   6.93779497
_cell_angle_alpha   95.85539445
_cell_angle_beta   102.75183180
_cell_angle_gamma   113.51879232
_symmetry_Int_Tables_number   1
_chemical_formula_structural   LiYP2Se
_chemical_formula_sum   'Li2 Y2 P4 Se2'
_cell_volume   123.21862252
_cell_formula_units_Z   2
loop_
 _symmetry_equiv_pos_site_id
 _symmetry_equiv_pos_as_xyz
  1  'x, y, z'
loop_
 _atom_site_type_symbol
 _atom_site_label
 _atom_site_symmetry_multiplicity
 _atom_site_fract_x
 _atom_site_fract_y
 _atom_site_fract_z
 _atom_site_occupancy
  Y  Y0  1  0.12500000  0.00000000  0.25000000  1
  Y  Y1  1  0.00000000  0.00000000  0.00000000  1
  P  P2  1  0.37500000  0.00000000  0.25000000  1
  P  P3  1  0.25000000  0.25000000  0.25000000  1
  P  P4  1  0.00000000  0.25000000  0.12500000  1
  P  P5  1  0.34742348  0.93891646  0.50812478  1
  Se  Se6  1  0.25197070  0.72694641  0.14670108  1
  Se  Se7  1  0.47279867  0.83259654  0.06623635  1
  Li  Li8  1  0.72650603  0.42698337  0.44661271  1
  Li  Li9  1  0.20672458  0.20273172  0.31942813  1
