# generated using pymatgen
data_LiF
_symmetry_space_group_name_H-M   'P 1'
_cell_length_a   14.13441222
_cell_length_b   14.13441222
_cell_length_c   9.57418026
_cell_angle_alpha   90.00000000
_cell_angle_beta   90.00000000
_cell_angle_gamma   120.00000000
_symmetry_Int_Tables_number   1
_chemical_formula_structural   LiF
_chemical_formula_sum   'Li59 F59'
_cell_volume   1656.48587935
_cell_formula_units_Z   59
loop_
 _symmetry_equiv_pos_site_id
 _symmetry_equiv_pos_as_xyz
  1  'x, y, z'
loop_
 _atom_site_type_symbol
 _atom_site_label
 _atom_site_symmetry_multiplicity
 _atom_site_fract_x
 _atom_site_fract_y
 _atom_site_fract_z
 _atom_site_occupancy
  F  F0  1  0.08751695  0.91248305  0.00000000  1
  F  F1  1  0.08751695  0.17503391  0.00000000  1
  F  F2  1  0.82496609  0.91248305  0.00000000  1
  F  F3  1  0.33333333  0.66666667  0.00000000  1
  F  F4  1  0.35790565  0.14488768  0.04450197  1
  F  F5  1  0.85511232  0.21301798  0.04450197  1
  F  F6  1  0.78698202  0.64209435  0.04450197  1
  F  F7  1  0.85511232  0.64209435  0.95549803  1
  F  F8  1  0.78698202  0.14488768  0.95549803  1
  F  F9  1  0.35790565  0.21301798  0.95549803  1
  F  F10  1  0.43245552  0.80500503  0.57744970  1
  F  F11  1  0.19499497  0.62745049  0.57744970  1
  F  F12  1  0.37254951  0.56754448  0.57744970  1
  F  F13  1  0.19499497  0.56754448  0.42255030  1
  F  F14  1  0.37254951  0.80500503  0.42255030  1
  F  F15  1  0.43245552  0.62745049  0.42255030  1
  F  F16  1  0.00000000  0.00000000  0.50000000  1
  F  F17  1  0.57750000  0.66171082  0.23311074  1
  F  F18  1  0.33828918  0.91578918  0.23311074  1
  F  F19  1  0.08421082  0.42250000  0.23311074  1
  F  F20  1  0.33828918  0.42250000  0.76688926  1
  F  F21  1  0.08421082  0.66171082  0.76688926  1
  F  F22  1  0.57750000  0.91578918  0.76688926  1
  F  F23  1  0.49646085  0.50353915  0.00000000  1
  F  F24  1  0.49646085  0.99292170  0.00000000  1
  F  F25  1  0.00707830  0.50353915  0.00000000  1
  F  F26  1  0.90700249  0.58421175  0.10525313  1
  F  F27  1  0.41578825  0.32279075  0.10525313  1
  F  F28  1  0.67720925  0.09299751  0.10525313  1
  F  F29  1  0.41578825  0.09299751  0.89474687  1
  F  F30  1  0.67720925  0.58421175  0.89474687  1
  F  F31  1  0.90700249  0.32279075  0.89474687  1
  F  F32  1  0.41542313  0.17028983  0.37096838  1
  F  F33  1  0.82971017  0.24513330  0.37096838  1
  F  F34  1  0.75486670  0.58457687  0.37096838  1
  F  F35  1  0.82971017  0.58457687  0.62903162  1
  F  F36  1  0.75486670  0.17028983  0.62903162  1
  F  F37  1  0.41542313  0.24513330  0.62903162  1
  F  F38  1  0.86776761  0.25980929  0.50598939  1
  F  F39  1  0.74019071  0.60795831  0.50598939  1
  F  F40  1  0.39204169  0.13223239  0.50598939  1
  F  F41  1  0.74019071  0.13223239  0.49401061  1
  F  F42  1  0.39204169  0.25980929  0.49401061  1
  F  F43  1  0.86776761  0.60795831  0.49401061  1
  F  F44  1  0.37425775  0.11662043  0.95494222  1
  F  F45  1  0.88337957  0.25763732  0.95494222  1
  F  F46  1  0.74236268  0.62574225  0.95494222  1
  F  F47  1  0.88337957  0.62574225  0.04505778  1
  F  F48  1  0.74236268  0.11662043  0.04505778  1
  F  F49  1  0.37425775  0.25763732  0.04505778  1
  F  F50  1  0.96778354  0.00586775  0.79770406  1
  F  F51  1  0.99413225  0.96191579  0.79770406  1
  F  F52  1  0.03808421  0.03221646  0.79770406  1
  F  F53  1  0.99413225  0.03221646  0.20229594  1
  F  F54  1  0.03808421  0.00586775  0.20229594  1
  F  F55  1  0.96778354  0.96191579  0.20229594  1
  F  F56  1  0.19576198  0.80423802  -0.00000000  1
  F  F57  1  0.19576198  0.39152396  -0.00000000  1
  F  F58  1  0.60847604  0.80423802  0.00000000  1
  Li  Li59  1  0.53395791  0.22511555  0.15885160  1
  Li  Li60  1  -0.22511555  0.30884236  0.15885160  1
  Li  Li61  1  -0.30884236  -0.53395791  0.15885160  1
  Li  Li62  1  -0.22511555  -0.53395791  -0.15885160  1
  Li  Li63  1  -0.30884236  0.22511555  -0.15885160  1
  Li  Li64  1  0.53395791  0.30884236  -0.15885160  1
  Li  Li65  1  0.80022096  0.28979620  0.92099311  1
  Li  Li66  1  0.71020380  0.51042476  0.92099311  1
  Li  Li67  1  0.48957524  0.19977904  0.92099311  1
  Li  Li68  1  0.71020380  0.19977904  0.07900689  1
  Li  Li69  1  0.48957524  0.28979620  0.07900689  1
  Li  Li70  1  0.80022096  0.51042476  0.07900689  1
  Li  Li71  1  0.46383007  0.53616993  0.50000000  1
  Li  Li72  1  0.46383007  0.92766014  0.50000000  1
  Li  Li73  1  0.07233986  0.53616993  0.50000000  1
  Li  Li74  1  0.59961249  0.40038751  -0.00000000  1
  Li  Li75  1  0.59961249  0.19922498  0.00000000  1
  Li  Li76  1  0.80077502  0.40038751  0.00000000  1
  Li  Li77  1  0.01588645  0.39004218  0.42085258  1
  Li  Li78  1  0.60995782  0.62584428  0.42085258  1
  Li  Li79  1  0.37415572  0.98411355  0.42085258  1
  Li  Li80  1  0.60995782  0.98411355  0.57914742  1
  Li  Li81  1  0.37415572  0.39004218  0.57914742  1
  Li  Li82  1  0.01588645  0.62584428  0.57914742  1
  Li  Li83  1  0.55548126  0.58236264  0.17847817  1
  Li  Li84  1  0.41763736  0.97311863  0.17847817  1
  Li  Li85  1  0.02688137  0.44451874  0.17847817  1
  Li  Li86  1  0.41763736  0.44451874  0.82152183  1
  Li  Li87  1  0.02688137  0.58236264  0.82152183  1
  Li  Li88  1  0.55548126  0.97311863  0.82152183  1
  Li  Li89  1  0.92773760  0.30742410  0.06008756  1
  Li  Li90  1  0.69257590  0.62031351  0.06008756  1
  Li  Li91  1  0.37968649  0.07226240  0.06008756  1
  Li  Li92  1  0.69257590  0.07226240  0.93991244  1
  Li  Li93  1  0.37968649  0.30742410  0.93991244  1
  Li  Li94  1  0.92773760  0.62031351  0.93991244  1
  Li  Li95  1  0.66666667  0.33333333  0.93238196  1
  Li  Li96  1  0.66666667  0.33333333  0.06761804  1
  Li  Li97  1  0.56669487  0.43330513  0.50000000  1
  Li  Li98  1  0.56669487  0.13338973  0.50000000  1
  Li  Li99  1  0.86661027  0.43330513  0.50000000  1
  Li  Li100  1  0.33333333  0.66666667  0.50000000  1
  Li  Li101  1  0.20241107  0.51624867  0.26377296  1
  Li  Li102  1  0.48375133  0.68616240  0.26377296  1
  Li  Li103  1  0.31383760  0.79758893  0.26377296  1
  Li  Li104  1  0.48375133  0.79758893  0.73622704  1
  Li  Li105  1  0.31383760  0.51624867  0.73622704  1
  Li  Li106  1  0.20241107  0.68616240  0.73622704  1
  Li  Li107  1  0.00155026  0.94628256  0.05478407  1
  Li  Li108  1  0.05371744  0.05526771  0.05478407  1
  Li  Li109  1  0.94473229  0.99844974  0.05478407  1
  Li  Li110  1  0.05371744  0.99844974  0.94521593  1
  Li  Li111  1  0.94473229  0.94628256  0.94521593  1
  Li  Li112  1  0.00155026  0.05526771  0.94521593  1
  Li  Li113  1  0.23628055  0.76371945  0.50000000  1
  Li  Li114  1  0.23628055  0.47256110  0.50000000  1
  Li  Li115  1  0.52743890  0.76371945  0.50000000  1
  Li  Li116  1  0.33333333  0.66666667  0.34397598  1
  Li  Li117  1  0.33333333  0.66666667  0.65602402  1
