# generated using pymatgen
data_LiF
_symmetry_space_group_name_H-M   'P 1'
_cell_length_a   11.83540790
_cell_length_b   11.83540790
_cell_length_c   11.49146233
_cell_angle_alpha   90.00000000
_cell_angle_beta   90.00000000
_cell_angle_gamma   120.00000000
_symmetry_Int_Tables_number   1
_chemical_formula_structural   LiF
_chemical_formula_sum   'Li84 F84'
_cell_volume   1394.03086701
_cell_formula_units_Z   84
loop_
 _symmetry_equiv_pos_site_id
 _symmetry_equiv_pos_as_xyz
  1  'x, y, z'
loop_
 _atom_site_type_symbol
 _atom_site_label
 _atom_site_symmetry_multiplicity
 _atom_site_fract_x
 _atom_site_fract_y
 _atom_site_fract_z
 _atom_site_occupancy
  F  F0  1  0.54351808  0.00000000  0.25000000  1
  F  F1  1  0.00000000  0.54351808  0.25000000  1
  F  F2  1  0.45648192  0.45648192  0.25000000  1
  F  F3  1  0.45648192  -0.00000000  0.75000000  1
  F  F4  1  0.00000000  0.45648192  0.75000000  1
  F  F5  1  0.54351808  0.54351808  0.75000000  1
  F  F6  1  0.21018475  0.33333333  0.58333333  1
  F  F7  1  0.66666667  0.87685142  0.58333333  1
  F  F8  1  0.12314858  0.78981525  0.58333333  1
  F  F9  1  0.12314858  0.33333333  0.08333333  1
  F  F10  1  0.66666667  0.78981525  0.08333333  1
  F  F11  1  0.21018475  0.87685142  0.08333333  1
  F  F12  1  0.87685142  0.66666667  0.91666667  1
  F  F13  1  0.33333333  0.21018475  0.91666667  1
  F  F14  1  0.78981525  0.12314858  0.91666667  1
  F  F15  1  0.78981525  0.66666667  0.41666667  1
  F  F16  1  0.33333333  0.12314858  0.41666667  1
  F  F17  1  0.87685142  0.21018475  0.41666667  1
  F  F18  1  0.50000000  0.00000000  0.00000000  1
  F  F19  1  0.00000000  0.50000000  0.00000000  1
  F  F20  1  0.50000000  0.50000000  0.00000000  1
  F  F21  1  0.00000000  0.50000000  0.50000000  1
  F  F22  1  0.50000000  0.00000000  0.50000000  1
  F  F23  1  0.50000000  0.50000000  0.50000000  1
  F  F24  1  0.16666667  0.33333333  0.33333333  1
  F  F25  1  0.66666667  0.83333333  0.33333333  1
  F  F26  1  0.16666667  0.83333333  0.33333333  1
  F  F27  1  0.66666667  0.83333333  0.83333333  1
  F  F28  1  0.16666667  0.33333333  0.83333333  1
  F  F29  1  0.16666667  0.83333333  0.83333333  1
  F  F30  1  0.83333333  0.66666667  0.66666667  1
  F  F31  1  0.33333333  0.16666667  0.66666667  1
  F  F32  1  0.83333333  0.16666667  0.66666667  1
  F  F33  1  0.33333333  0.16666667  0.16666667  1
  F  F34  1  0.83333333  0.66666667  0.16666667  1
  F  F35  1  0.83333333  0.16666667  0.16666667  1
  F  F36  1  0.15219459  0.36591969  0.43364585  1
  F  F37  1  0.63408031  0.78627489  0.43364585  1
  F  F38  1  0.21372511  0.84780541  0.43364585  1
  F  F39  1  0.36591969  0.15219459  0.06635415  1
  F  F40  1  0.78627489  0.63408031  0.06635415  1
  F  F41  1  0.84780541  0.21372511  0.06635415  1
  F  F42  1  0.84780541  0.63408031  0.56635415  1
  F  F43  1  0.36591969  0.21372511  0.56635415  1
  F  F44  1  0.78627489  0.15219459  0.56635415  1
  F  F45  1  0.63408031  0.84780541  0.93364585  1
  F  F46  1  0.21372511  0.36591969  0.93364585  1
  F  F47  1  0.15219459  0.78627489  0.93364585  1
  F  F48  1  0.81886125  0.69925302  0.76697919  1
  F  F49  1  0.30074698  0.11960823  0.76697919  1
  F  F50  1  0.88039177  0.18113875  0.76697919  1
  F  F51  1  0.03258636  0.48552792  0.39968748  1
  F  F52  1  0.45294156  0.96741364  0.39968748  1
  F  F53  1  0.51447208  0.54705844  0.39968748  1
  F  F54  1  0.51447208  0.96741364  0.89968748  1
  F  F55  1  0.03258636  0.54705844  0.89968748  1
  F  F56  1  0.45294156  0.48552792  0.89968748  1
  F  F57  1  0.30074698  0.18113875  0.26697919  1
  F  F58  1  0.88039177  0.69925302  0.26697919  1
  F  F59  1  0.81886125  0.11960823  0.26697919  1
  F  F60  1  0.48552792  0.03258636  0.10031252  1
  F  F61  1  0.96741364  0.45294156  0.10031252  1
  F  F62  1  0.54705844  0.51447208  0.10031252  1
  F  F63  1  0.69925302  0.81886125  0.73302081  1
  F  F64  1  0.11960823  0.30074698  0.73302081  1
  F  F65  1  0.18113875  0.88039177  0.73302081  1
  F  F66  1  0.18113875  0.30074698  0.23302081  1
  F  F67  1  0.69925302  0.88039177  0.23302081  1
  F  F68  1  0.11960823  0.81886125  0.23302081  1
  F  F69  1  0.96741364  0.51447208  0.60031252  1
  F  F70  1  0.54705844  0.03258636  0.60031252  1
  F  F71  1  0.48552792  0.45294156  0.60031252  1
  F  F72  1  0.00000000  0.00000000  0.29074270  1
  F  F73  1  0.00000000  0.00000000  0.20925730  1
  F  F74  1  0.00000000  0.00000000  0.70925730  1
  F  F75  1  0.00000000  0.00000000  0.79074270  1
  F  F76  1  0.66666667  0.33333333  0.62407603  1
  F  F77  1  0.66666667  0.33333333  0.54259064  1
  F  F78  1  0.66666667  0.33333333  0.04259064  1
  F  F79  1  0.66666667  0.33333333  0.12407603  1
  F  F80  1  0.33333333  0.66666667  0.95740936  1
  F  F81  1  0.33333333  0.66666667  0.87592397  1
  F  F82  1  0.33333333  0.66666667  0.37592397  1
  F  F83  1  0.33333333  0.66666667  0.45740936  1
  Li  Li84  1  0.78704848  0.70271920  0.55071772  1
  Li  Li85  1  -0.70271920  0.08432928  0.55071772  1
  Li  Li86  1  -0.08432928  -0.78704848  0.55071772  1
  Li  Li87  1  0.70271920  0.78704848  -0.05071772  1
  Li  Li88  1  0.08432928  -0.70271920  -0.05071772  1
  Li  Li89  1  -0.78704848  -0.08432928  -0.05071772  1
  Li  Li90  1  -0.78704848  -0.70271920  -0.55071772  1
  Li  Li91  1  0.70271920  -0.08432928  -0.55071772  1
  Li  Li92  1  0.08432928  0.78704848  -0.55071772  1
  Li  Li93  1  -0.70271920  -0.78704848  1.05071772  1
  Li  Li94  1  -0.08432928  0.70271920  1.05071772  1
  Li  Li95  1  0.78704848  0.08432928  1.05071772  1
  Li  Li96  1  1.45371514  1.03605253  0.88405105  1
  Li  Li97  1  -0.03605253  0.41766261  0.88405105  1
  Li  Li98  1  0.58233739  -0.45371514  0.88405105  1
  Li  Li99  1  1.36938586  1.12038181  0.28261561  1
  Li  Li100  1  0.75099594  -0.36938586  0.28261561  1
  Li  Li101  1  -0.12038181  0.24900406  0.28261561  1
  Li  Li102  1  -0.12038181  -0.36938586  -0.21738439  1
  Li  Li103  1  1.36938586  0.24900406  -0.21738439  1
  Li  Li104  1  0.75099594  1.12038181  -0.21738439  1
  Li  Li105  1  -0.03605253  -0.45371514  1.38405105  1
  Li  Li106  1  0.58233739  1.03605253  1.38405105  1
  Li  Li107  1  1.45371514  0.41766261  1.38405105  1
  Li  Li108  1  1.12038181  1.36938586  1.21738439  1
  Li  Li109  1  -0.36938586  0.75099594  1.21738439  1
  Li  Li110  1  0.24900406  -0.12038181  1.21738439  1
  Li  Li111  1  1.03605253  1.45371514  0.61594895  1
  Li  Li112  1  0.41766261  -0.03605253  0.61594895  1
  Li  Li113  1  -0.45371514  0.58233739  0.61594895  1
  Li  Li114  1  -0.45371514  -0.03605253  0.11594895  1
  Li  Li115  1  1.03605253  0.58233739  0.11594895  1
  Li  Li116  1  0.41766261  1.45371514  0.11594895  1
  Li  Li117  1  -0.36938586  -0.12038181  1.71738439  1
  Li  Li118  1  0.24900406  1.36938586  1.71738439  1
  Li  Li119  1  1.12038181  0.75099594  1.71738439  1
  Li  Li120  1  0.00000000  0.00000000  0.61123921  1
  Li  Li121  1  0.00000000  0.00000000  0.88876079  1
  Li  Li122  1  0.00000000  0.00000000  0.38876079  1
  Li  Li123  1  0.00000000  0.00000000  0.11123921  1
  Li  Li124  1  0.66666667  0.33333333  0.94457255  1
  Li  Li125  1  0.66666667  0.33333333  0.22209412  1
  Li  Li126  1  0.66666667  0.33333333  0.72209412  1
  Li  Li127  1  0.66666667  0.33333333  0.44457255  1
  Li  Li128  1  0.33333333  0.66666667  0.27790588  1
  Li  Li129  1  0.33333333  0.66666667  0.55542745  1
  Li  Li130  1  0.33333333  0.66666667  0.05542745  1
  Li  Li131  1  0.33333333  0.66666667  0.77790588  1
  Li  Li132  1  0.02576620  0.23312228  0.68687138  1
  Li  Li133  1  0.76687772  0.79264392  0.68687138  1
  Li  Li134  1  0.20735608  0.97423380  0.68687138  1
  Li  Li135  1  0.23312228  0.02576620  0.81312862  1
  Li  Li136  1  0.79264392  0.76687772  0.81312862  1
  Li  Li137  1  0.97423380  0.20735608  0.81312862  1
  Li  Li138  1  0.97423380  0.76687772  0.31312862  1
  Li  Li139  1  0.23312228  0.20735608  0.31312862  1
  Li  Li140  1  0.79264392  0.02576620  0.31312862  1
  Li  Li141  1  0.76687772  0.97423380  0.18687138  1
  Li  Li142  1  0.20735608  0.23312228  0.18687138  1
  Li  Li143  1  0.02576620  0.79264392  0.18687138  1
  Li  Li144  1  0.69243287  0.56645561  0.02020471  1
  Li  Li145  1  0.43354439  0.12597726  0.02020471  1
  Li  Li146  1  0.87402274  0.30756713  0.02020471  1
  Li  Li147  1  0.89978894  0.35909953  0.14646195  1
  Li  Li148  1  0.45931059  0.10021106  0.14646195  1
  Li  Li149  1  0.64090047  0.54068941  0.14646195  1
  Li  Li150  1  0.64090047  0.10021106  0.64646195  1
  Li  Li151  1  0.89978894  0.54068941  0.64646195  1
  Li  Li152  1  0.45931059  0.35909953  0.64646195  1
  Li  Li153  1  0.43354439  0.30756713  0.52020471  1
  Li  Li154  1  0.87402274  0.56645561  0.52020471  1
  Li  Li155  1  0.69243287  0.12597726  0.52020471  1
  Li  Li156  1  0.35909953  0.89978894  0.35353805  1
  Li  Li157  1  0.10021106  0.45931059  0.35353805  1
  Li  Li158  1  0.54068941  0.64090047  0.35353805  1
  Li  Li159  1  0.56645561  0.69243287  0.47979529  1
  Li  Li160  1  0.12597726  0.43354439  0.47979529  1
  Li  Li161  1  0.30756713  0.87402274  0.47979529  1
  Li  Li162  1  0.30756713  0.43354439  0.97979529  1
  Li  Li163  1  0.56645561  0.87402274  0.97979529  1
  Li  Li164  1  0.12597726  0.69243287  0.97979529  1
  Li  Li165  1  0.10021106  0.64090047  0.85353805  1
  Li  Li166  1  0.54068941  0.89978894  0.85353805  1
  Li  Li167  1  0.35909953  0.45931059  0.85353805  1
