# generated using pymatgen
data_Li3Y2(P2Se)2
_symmetry_space_group_name_H-M   'P 1'
_cell_length_a   5.36652194
_cell_length_b   5.70033857
_cell_length_c   7.33797452
_cell_angle_alpha   94.05231412
_cell_angle_beta   98.82509769
_cell_angle_gamma   106.27653526
_symmetry_Int_Tables_number   1
_chemical_formula_structural   Li3Y2(P2Se)2
_chemical_formula_sum   'Li3 Y2 P4 Se2'
_cell_volume   211.39366700
_cell_formula_units_Z   1
loop_
 _symmetry_equiv_pos_site_id
 _symmetry_equiv_pos_as_xyz
  1  'x, y, z'
loop_
 _atom_site_type_symbol
 _atom_site_label
 _atom_site_symmetry_multiplicity
 _atom_site_fract_x
 _atom_site_fract_y
 _atom_site_fract_z
 _atom_site_occupancy
  Se  Se0  1  0.00000000  0.00000000  0.00000000  1
  Se  Se1  1  0.50000000  0.50000000  0.50000000  1
  Y  Y2  1  0.50000000  0.50000000  0.00000000  1
  Y  Y3  1  0.50000000  0.00000000  0.50000000  1
  P  P4  1  0.00000000  0.50000000  0.50000000  1
  P  P5  1  0.04314345  0.47345112  0.15516231  1
  P  P6  1  0.22516037  0.70050874  0.73459239  1
  P  P7  1  0.93848673  0.01712268  0.72121243  1
  Li  Li8  1  0.44425141  0.16407841  0.24270828  1
  Li  Li9  1  0.19768607  0.85654339  0.09168448  1
  Li  Li10  1  0.17263520  0.42154326  0.68753863  1
