# generated using pymatgen
data_LiF
_symmetry_space_group_name_H-M   'P 1'
_cell_length_a   8.18159561
_cell_length_b   8.87935165
_cell_length_c   12.81671450
_cell_angle_alpha   90.00000000
_cell_angle_beta   90.00000000
_cell_angle_gamma   90.00000000
_symmetry_Int_Tables_number   1
_chemical_formula_structural   LiF
_chemical_formula_sum   'Li24 F24'
_cell_volume   931.09924855
_cell_formula_units_Z   24
loop_
 _symmetry_equiv_pos_site_id
 _symmetry_equiv_pos_as_xyz
  1  'x, y, z'
loop_
 _atom_site_type_symbol
 _atom_site_label
 _atom_site_symmetry_multiplicity
 _atom_site_fract_x
 _atom_site_fract_y
 _atom_site_fract_z
 _atom_site_occupancy
  F  F0  1  0.12565345  0.33521749  0.66631517  1
  F  F1  1  0.37434655  0.66478251  0.16631517  1
  F  F2  1  0.87434655  0.83521749  0.33368483  1
  F  F3  1  0.62565345  0.16478251  0.83368483  1
  F  F4  1  0.87434655  0.66478251  0.33368483  1
  F  F5  1  0.62565345  0.33521749  0.83368483  1
  F  F6  1  0.12565345  0.16478251  0.66631517  1
  F  F7  1  0.37434655  0.83521749  0.16631517  1
  F  F8  1  0.71931482  0.88542827  0.94277261  1
  F  F9  1  0.78068518  0.11457173  0.44277261  1
  F  F10  1  0.28068518  0.38542827  0.05722739  1
  F  F11  1  0.21931482  0.61457173  0.55722739  1
  F  F12  1  0.28068518  0.11457173  0.05722739  1
  F  F13  1  0.21931482  0.88542827  0.55722739  1
  F  F14  1  0.71931482  0.61457173  0.94277261  1
  F  F15  1  0.78068518  0.38542827  0.44277261  1
  F  F16  1  0.48839760  0.20946821  0.98224029  1
  F  F17  1  0.01160240  0.79053179  0.48224029  1
  F  F18  1  0.51160240  0.70946821  0.01775971  1
  F  F19  1  0.98839760  0.29053179  0.51775971  1
  F  F20  1  0.51160240  0.79053179  0.01775971  1
  F  F21  1  0.98839760  0.20946821  0.51775971  1
  F  F22  1  0.48839760  0.29053179  0.98224029  1
  F  F23  1  0.01160240  0.70946821  0.48224029  1
  Li  Li24  1  0.82423905  0.41806765  0.24018836  1
  Li  Li25  1  -0.32423905  -0.41806765  0.74018836  1
  Li  Li26  1  -0.82423905  0.91806765  -0.24018836  1
  Li  Li27  1  1.32423905  0.08193235  0.25981164  1
  Li  Li28  1  -0.82423905  -0.41806765  -0.24018836  1
  Li  Li29  1  1.32423905  0.41806765  0.25981164  1
  Li  Li30  1  0.82423905  0.08193235  0.24018836  1
  Li  Li31  1  -0.32423905  0.91806765  0.74018836  1
  Li  Li32  1  0.90683075  0.92874520  0.89277089  1
  Li  Li33  1  0.59316925  0.07125480  0.39277089  1
  Li  Li34  1  0.09316925  0.42874520  0.10722911  1
  Li  Li35  1  0.40683075  0.57125480  0.60722911  1
  Li  Li36  1  0.09316925  0.07125480  0.10722911  1
  Li  Li37  1  0.40683075  0.92874520  0.60722911  1
  Li  Li38  1  0.90683075  0.57125480  0.89277089  1
  Li  Li39  1  0.59316925  0.42874520  0.39277089  1
  Li  Li40  1  0.00000000  0.00000000  0.00000000  1
  Li  Li41  1  0.50000000  0.00000000  0.50000000  1
  Li  Li42  1  0.00000000  0.50000000  0.00000000  1
  Li  Li43  1  0.50000000  0.50000000  0.50000000  1
  Li  Li44  1  0.46069384  0.25000000  0.83114223  1
  Li  Li45  1  0.03930616  0.75000000  0.33114223  1
  Li  Li46  1  0.53930616  0.75000000  0.16885777  1
  Li  Li47  1  0.96069384  0.25000000  0.66885777  1
