# generated using pymatgen
data_LiF
_symmetry_space_group_name_H-M   'P 1'
_cell_length_a   17.67556720
_cell_length_b   17.67556720
_cell_length_c   4.57025868
_cell_angle_alpha   90.00000000
_cell_angle_beta   90.00000000
_cell_angle_gamma   120.00000000
_symmetry_Int_Tables_number   1
_chemical_formula_structural   LiF
_chemical_formula_sum   'Li36 F36'
_cell_volume   1236.56836440
_cell_formula_units_Z   36
loop_
 _symmetry_equiv_pos_site_id
 _symmetry_equiv_pos_as_xyz
  1  'x, y, z'
loop_
 _atom_site_type_symbol
 _atom_site_label
 _atom_site_symmetry_multiplicity
 _atom_site_fract_x
 _atom_site_fract_y
 _atom_site_fract_z
 _atom_site_occupancy
  F  F0  1  0.59073763  0.34652805  0.89903124  1
  F  F1  1  -0.34652805  0.24420958  0.89903124  1
  F  F2  1  -0.24420958  -0.59073763  0.89903124  1
  F  F3  1  0.34652805  0.59073763  -0.39903124  1
  F  F4  1  0.24420958  -0.34652805  -0.39903124  1
  F  F5  1  -0.59073763  -0.24420958  -0.39903124  1
  F  F6  1  -0.59073763  -0.34652805  -0.89903124  1
  F  F7  1  0.34652805  -0.24420958  -0.89903124  1
  F  F8  1  0.24420958  0.59073763  -0.89903124  1
  F  F9  1  -0.34652805  -0.59073763  1.39903124  1
  F  F10  1  -0.24420958  0.34652805  1.39903124  1
  F  F11  1  0.59073763  0.24420958  1.39903124  1
  F  F12  1  1.25740430  0.67986139  1.23236458  1
  F  F13  1  0.32013861  0.57754291  1.23236458  1
  F  F14  1  0.42245709  -0.25740430  1.23236458  1
  F  F15  1  1.01319472  0.92407096  -0.06569791  1
  F  F16  1  0.91087624  -0.01319472  -0.06569791  1
  F  F17  1  0.07592904  0.08912376  -0.06569791  1
  F  F18  1  0.07592904  -0.01319472  -0.56569791  1
  F  F19  1  1.01319472  0.08912376  -0.56569791  1
  F  F20  1  0.91087624  0.92407096  -0.56569791  1
  F  F21  1  0.32013861  -0.25740430  1.73236458  1
  F  F22  1  0.42245709  0.67986139  1.73236458  1
  F  F23  1  1.25740430  0.57754291  1.73236458  1
  F  F24  1  0.92407096  1.01319472  1.56569791  1
  F  F25  1  -0.01319472  0.91087624  1.56569791  1
  F  F26  1  0.08912376  0.07592904  1.56569791  1
  F  F27  1  0.67986139  1.25740430  0.26763542  1
  F  F28  1  0.57754291  0.32013861  0.26763542  1
  F  F29  1  -0.25740430  0.42245709  0.26763542  1
  F  F30  1  -0.25740430  0.32013861  -0.23236458  1
  F  F31  1  0.67986139  0.42245709  -0.23236458  1
  F  F32  1  0.57754291  1.25740430  -0.23236458  1
  F  F33  1  -0.01319472  0.07592904  2.06569791  1
  F  F34  1  0.08912376  1.01319472  2.06569791  1
  F  F35  1  0.92407096  0.91087624  2.06569791  1
  Li  Li36  1  0.75387675  0.91871041  0.29812715  1
  Li  Li37  1  0.08128959  0.83516633  0.29812715  1
  Li  Li38  1  0.16483367  0.24612325  0.29812715  1
  Li  Li39  1  0.91871041  0.75387675  0.20187285  1
  Li  Li40  1  0.83516633  0.08128959  0.20187285  1
  Li  Li41  1  0.24612325  0.16483367  0.20187285  1
  Li  Li42  1  0.24612325  0.08128959  0.70187285  1
  Li  Li43  1  0.91871041  0.16483367  0.70187285  1
  Li  Li44  1  0.83516633  0.75387675  0.70187285  1
  Li  Li45  1  0.08128959  0.24612325  0.79812715  1
  Li  Li46  1  0.16483367  0.91871041  0.79812715  1
  Li  Li47  1  0.75387675  0.83516633  0.79812715  1
  Li  Li48  1  0.42054341  0.25204375  0.63146048  1
  Li  Li49  1  0.74795625  0.16849967  0.63146048  1
  Li  Li50  1  0.83150033  0.57945659  0.63146048  1
  Li  Li51  1  0.58537708  0.08721008  0.53520618  1
  Li  Li52  1  0.50183300  0.41462292  0.53520618  1
  Li  Li53  1  0.91278992  0.49816700  0.53520618  1
  Li  Li54  1  0.91278992  0.41462292  0.03520618  1
  Li  Li55  1  0.58537708  0.49816700  0.03520618  1
  Li  Li56  1  0.50183300  0.08721008  0.03520618  1
  Li  Li57  1  0.74795625  0.57945659  0.13146048  1
  Li  Li58  1  0.83150033  0.25204375  0.13146048  1
  Li  Li59  1  0.42054341  0.16849967  0.13146048  1
  Li  Li60  1  0.08721008  0.58537708  0.96479382  1
  Li  Li61  1  0.41462292  0.50183300  0.96479382  1
  Li  Li62  1  0.49816700  0.91278992  0.96479382  1
  Li  Li63  1  0.25204375  0.42054341  0.86853952  1
  Li  Li64  1  0.16849967  0.74795625  0.86853952  1
  Li  Li65  1  0.57945659  0.83150033  0.86853952  1
  Li  Li66  1  0.57945659  0.74795625  0.36853952  1
  Li  Li67  1  0.25204375  0.83150033  0.36853952  1
  Li  Li68  1  0.16849967  0.42054341  0.36853952  1
  Li  Li69  1  0.41462292  0.91278992  0.46479382  1
  Li  Li70  1  0.49816700  0.58537708  0.46479382  1
  Li  Li71  1  0.08721008  0.50183300  0.46479382  1
