# generated using pymatgen
data_LiF
_symmetry_space_group_name_H-M   'P 1'
_cell_length_a   5.38610472
_cell_length_b   11.83235501
_cell_length_c   12.80039315
_cell_angle_alpha   90.00000000
_cell_angle_beta   90.00000000
_cell_angle_gamma   90.00000000
_symmetry_Int_Tables_number   1
_chemical_formula_structural   LiF
_chemical_formula_sum   'Li24 F24'
_cell_volume   815.77293609
_cell_formula_units_Z   24
loop_
 _symmetry_equiv_pos_site_id
 _symmetry_equiv_pos_as_xyz
  1  'x, y, z'
loop_
 _atom_site_type_symbol
 _atom_site_label
 _atom_site_symmetry_multiplicity
 _atom_site_fract_x
 _atom_site_fract_y
 _atom_site_fract_z
 _atom_site_occupancy
  F  F0  1  0.48311236  0.11208278  0.14261509  1
  F  F1  1  0.01688764  0.88791722  0.64261509  1
  F  F2  1  0.51688764  0.61208278  0.85738491  1
  F  F3  1  0.98311236  0.38791722  0.35738491  1
  F  F4  1  0.51688764  0.88791722  0.85738491  1
  F  F5  1  0.98311236  0.11208278  0.35738491  1
  F  F6  1  0.48311236  0.38791722  0.14261509  1
  F  F7  1  0.01688764  0.61208278  0.64261509  1
  F  F8  1  0.84727093  0.25000000  0.97905379  1
  F  F9  1  0.65272907  0.75000000  0.47905379  1
  F  F10  1  0.15272907  0.75000000  0.02094621  1
  F  F11  1  0.34727093  0.25000000  0.52094621  1
  F  F12  1  0.11297976  0.77583495  0.18568146  1
  F  F13  1  0.38702024  0.22416505  0.68568146  1
  F  F14  1  0.88702024  0.27583495  0.81431854  1
  F  F15  1  0.61297976  0.72416505  0.31431854  1
  F  F16  1  0.88702024  0.22416505  0.81431854  1
  F  F17  1  0.61297976  0.77583495  0.31431854  1
  F  F18  1  0.11297976  0.72416505  0.18568146  1
  F  F19  1  0.38702024  0.27583495  0.68568146  1
  F  F20  1  0.69981289  0.25000000  0.20374506  1
  F  F21  1  0.80018711  0.75000000  0.70374506  1
  F  F22  1  0.30018711  0.75000000  0.79625494  1
  F  F23  1  0.19981289  0.25000000  0.29625494  1
  Li  Li24  1  0.00000000  0.00000000  0.50000000  1
  Li  Li25  1  0.50000000  0.00000000  0.00000000  1
  Li  Li26  1  0.00000000  0.50000000  0.50000000  1
  Li  Li27  1  0.50000000  0.50000000  0.00000000  1
  Li  Li28  1  0.17532534  0.25000000  0.65651539  1
  Li  Li29  1  0.32467466  0.75000000  0.15651539  1
  Li  Li30  1  0.82467466  0.75000000  0.34348461  1
  Li  Li31  1  0.67532534  0.25000000  0.84348461  1
  Li  Li32  1  0.98231067  0.41102933  0.78844921  1
  Li  Li33  1  -0.48231067  -0.41102933  1.28844921  1
  Li  Li34  1  -0.98231067  0.91102933  -0.78844921  1
  Li  Li35  1  1.48231067  0.08897067  -0.28844921  1
  Li  Li36  1  -0.98231067  -0.41102933  -0.78844921  1
  Li  Li37  1  1.48231067  0.41102933  -0.28844921  1
  Li  Li38  1  0.98231067  0.08897067  0.78844921  1
  Li  Li39  1  -0.48231067  0.91102933  1.28844921  1
  Li  Li40  1  0.50486847  0.25000000  0.41416297  1
  Li  Li41  1  0.99513153  0.75000000  0.91416297  1
  Li  Li42  1  0.49513153  0.75000000  0.58583703  1
  Li  Li43  1  0.00486847  0.25000000  0.08583703  1
  Li  Li44  1  0.00000000  0.00000000  0.00000000  1
  Li  Li45  1  0.50000000  0.00000000  0.50000000  1
  Li  Li46  1  0.00000000  0.50000000  0.00000000  1
  Li  Li47  1  0.50000000  0.50000000  0.50000000  1
