# generated using pymatgen
data_LiF
_symmetry_space_group_name_H-M   'P 1'
_cell_length_a   13.31555015
_cell_length_b   16.72494445
_cell_length_c   8.16766073
_cell_angle_alpha   90.00000000
_cell_angle_beta   90.00000000
_cell_angle_gamma   90.00000000
_symmetry_Int_Tables_number   1
_chemical_formula_structural   LiF
_chemical_formula_sum   'Li50 F50'
_cell_volume   1818.95304545
_cell_formula_units_Z   50
loop_
 _symmetry_equiv_pos_site_id
 _symmetry_equiv_pos_as_xyz
  1  'x, y, z'
loop_
 _atom_site_type_symbol
 _atom_site_label
 _atom_site_symmetry_multiplicity
 _atom_site_fract_x
 _atom_site_fract_y
 _atom_site_fract_z
 _atom_site_occupancy
  F  F0  1  0.86238146  0.77758446  0.34338791  1
  F  F1  1  0.13761854  0.22241554  0.34338791  1
  F  F2  1  0.63761854  0.27758446  0.65661209  1
  F  F3  1  0.36238146  0.72241554  0.65661209  1
  F  F4  1  0.13761854  0.22241554  0.65661209  1
  F  F5  1  0.86238146  0.77758446  0.65661209  1
  F  F6  1  0.36238146  0.72241554  0.34338791  1
  F  F7  1  0.63761854  0.27758446  0.34338791  1
  F  F8  1  0.87894617  0.98909834  0.00000000  1
  F  F9  1  0.12105383  0.01090166  0.00000000  1
  F  F10  1  0.62105383  0.48909834  0.00000000  1
  F  F11  1  0.37894617  0.51090166  0.00000000  1
  F  F12  1  0.00000000  0.50000000  0.50000000  1
  F  F13  1  0.50000000  0.00000000  0.50000000  1
  F  F14  1  0.81641401  0.87691507  0.91338812  1
  F  F15  1  0.18358599  0.12308493  0.91338812  1
  F  F16  1  0.68358599  0.37691507  0.08661188  1
  F  F17  1  0.31641401  0.62308493  0.08661188  1
  F  F18  1  0.18358599  0.12308493  0.08661188  1
  F  F19  1  0.81641401  0.87691507  0.08661188  1
  F  F20  1  0.31641401  0.62308493  0.91338812  1
  F  F21  1  0.68358599  0.37691507  0.91338812  1
  F  F22  1  0.12949200  0.20901406  0.80155592  1
  F  F23  1  0.87050800  0.79098594  0.80155592  1
  F  F24  1  0.37050800  0.70901406  0.19844408  1
  F  F25  1  0.62949200  0.29098594  0.19844408  1
  F  F26  1  0.87050800  0.79098594  0.19844408  1
  F  F27  1  0.12949200  0.20901406  0.19844408  1
  F  F28  1  0.62949200  0.29098594  0.80155592  1
  F  F29  1  0.37050800  0.70901406  0.80155592  1
  F  F30  1  0.67278152  0.80760358  0.00000000  1
  F  F31  1  0.32721848  0.19239642  -0.00000000  1
  F  F32  1  0.82721848  0.30760358  0.00000000  1
  F  F33  1  0.17278152  0.69239642  -0.00000000  1
  F  F34  1  0.37498789  0.16452579  0.69284260  1
  F  F35  1  0.62501211  0.83547421  0.69284260  1
  F  F36  1  0.12501211  0.66452579  0.30715740  1
  F  F37  1  0.87498789  0.33547421  0.30715740  1
  F  F38  1  0.62501211  0.83547421  0.30715740  1
  F  F39  1  0.37498789  0.16452579  0.30715740  1
  F  F40  1  0.87498789  0.33547421  0.69284260  1
  F  F41  1  0.12501211  0.66452579  0.69284260  1
  F  F42  1  0.49467751  0.30275534  0.21116749  1
  F  F43  1  0.50532249  0.69724466  0.21116749  1
  F  F44  1  0.00532249  0.80275534  0.78883251  1
  F  F45  1  0.99467751  0.19724466  0.78883251  1
  F  F46  1  0.50532249  0.69724466  0.78883251  1
  F  F47  1  0.49467751  0.30275534  0.78883251  1
  F  F48  1  0.99467751  0.19724466  0.21116749  1
  F  F49  1  0.00532249  0.80275534  0.21116749  1
  Li  Li50  1  0.22635072  0.92574543  0.11989724  1
  Li  Li51  1  -0.22635072  -0.92574543  0.11989724  1
  Li  Li52  1  0.27364928  1.42574543  -0.11989724  1
  Li  Li53  1  0.72635072  -0.42574543  -0.11989724  1
  Li  Li54  1  -0.22635072  -0.92574543  -0.11989724  1
  Li  Li55  1  0.22635072  0.92574543  -0.11989724  1
  Li  Li56  1  0.72635072  -0.42574543  0.11989724  1
  Li  Li57  1  0.27364928  1.42574543  0.11989724  1
  Li  Li58  1  0.34557415  0.55440799  0.64691788  1
  Li  Li59  1  0.65442585  0.44559201  0.64691788  1
  Li  Li60  1  0.15442585  0.05440799  0.35308212  1
  Li  Li61  1  0.84557415  0.94559201  0.35308212  1
  Li  Li62  1  0.65442585  0.44559201  0.35308212  1
  Li  Li63  1  0.34557415  0.55440799  0.35308212  1
  Li  Li64  1  0.84557415  0.94559201  0.64691788  1
  Li  Li65  1  0.15442585  0.05440799  0.64691788  1
  Li  Li66  1  0.21399195  0.00921431  0.22047616  1
  Li  Li67  1  0.78600805  0.99078569  0.22047616  1
  Li  Li68  1  0.28600805  0.50921431  0.77952384  1
  Li  Li69  1  0.71399195  0.49078569  0.77952384  1
  Li  Li70  1  0.78600805  0.99078569  0.77952384  1
  Li  Li71  1  0.21399195  0.00921431  0.77952384  1
  Li  Li72  1  0.71399195  0.49078569  0.22047616  1
  Li  Li73  1  0.28600805  0.50921431  0.22047616  1
  Li  Li74  1  0.89879851  0.18310094  0.12494458  1
  Li  Li75  1  0.10120149  0.81689906  0.12494458  1
  Li  Li76  1  0.60120149  0.68310094  0.87505542  1
  Li  Li77  1  0.39879851  0.31689906  0.87505542  1
  Li  Li78  1  0.10120149  0.81689906  0.87505542  1
  Li  Li79  1  0.89879851  0.18310094  0.87505542  1
  Li  Li80  1  0.39879851  0.31689906  0.12494458  1
  Li  Li81  1  0.60120149  0.68310094  0.12494458  1
  Li  Li82  1  0.30997668  0.97246050  0.73388064  1
  Li  Li83  1  0.69002332  0.02753950  0.73388064  1
  Li  Li84  1  0.19002332  0.47246050  0.26611936  1
  Li  Li85  1  0.80997668  0.52753950  0.26611936  1
  Li  Li86  1  0.69002332  0.02753950  0.26611936  1
  Li  Li87  1  0.30997668  0.97246050  0.26611936  1
  Li  Li88  1  0.80997668  0.52753950  0.73388064  1
  Li  Li89  1  0.19002332  0.47246050  0.73388064  1
  Li  Li90  1  0.00000000  0.50000000  0.00000000  1
  Li  Li91  1  0.50000000  0.00000000  0.00000000  1
  Li  Li92  1  0.36609589  0.65502312  0.59198261  1
  Li  Li93  1  0.63390411  0.34497688  0.59198261  1
  Li  Li94  1  0.13390411  0.15502312  0.40801739  1
  Li  Li95  1  0.86609589  0.84497688  0.40801739  1
  Li  Li96  1  0.63390411  0.34497688  0.40801739  1
  Li  Li97  1  0.36609589  0.65502312  0.40801739  1
  Li  Li98  1  0.86609589  0.84497688  0.59198261  1
  Li  Li99  1  0.13390411  0.15502312  0.59198261  1
