# generated using pymatgen
data_LiF
_symmetry_space_group_name_H-M   'P 1'
_cell_length_a   10.17400783
_cell_length_b   6.58104436
_cell_length_c   7.51241765
_cell_angle_alpha   90.00000000
_cell_angle_beta   90.00000000
_cell_angle_gamma   90.00000000
_symmetry_Int_Tables_number   1
_chemical_formula_structural   LiF
_chemical_formula_sum   'Li24 F24'
_cell_volume   502.99840747
_cell_formula_units_Z   24
loop_
 _symmetry_equiv_pos_site_id
 _symmetry_equiv_pos_as_xyz
  1  'x, y, z'
loop_
 _atom_site_type_symbol
 _atom_site_label
 _atom_site_symmetry_multiplicity
 _atom_site_fract_x
 _atom_site_fract_y
 _atom_site_fract_z
 _atom_site_occupancy
  F  F0  1  0.11822097  0.85949073  0.92039419  1
  F  F1  1  0.38177903  0.14050927  0.42039419  1
  F  F2  1  0.88177903  0.35949073  0.07960581  1
  F  F3  1  0.61822097  0.64050927  0.57960581  1
  F  F4  1  0.88177903  0.14050927  0.07960581  1
  F  F5  1  0.61822097  0.85949073  0.57960581  1
  F  F6  1  0.11822097  0.64050927  0.92039419  1
  F  F7  1  0.38177903  0.35949073  0.42039419  1
  F  F8  1  0.00000000  0.00000000  0.50000000  1
  F  F9  1  0.50000000  0.00000000  0.00000000  1
  F  F10  1  0.00000000  0.50000000  0.50000000  1
  F  F11  1  0.50000000  0.50000000  -0.00000000  1
  F  F12  1  0.75114723  0.43236589  0.78878969  1
  F  F13  1  0.74885277  0.56763411  0.28878969  1
  F  F14  1  0.24885277  0.93236589  0.21121031  1
  F  F15  1  0.25114723  0.06763411  0.71121031  1
  F  F16  1  0.24885277  0.56763411  0.21121031  1
  F  F17  1  0.25114723  0.43236589  0.71121031  1
  F  F18  1  0.75114723  0.06763411  0.78878969  1
  F  F19  1  0.74885277  0.93236589  0.28878969  1
  F  F20  1  0.06938048  0.25000000  0.50618366  1
  F  F21  1  0.43061952  0.75000000  0.00618366  1
  F  F22  1  0.93061952  0.75000000  0.49381634  1
  F  F23  1  0.56938048  0.25000000  0.99381634  1
  Li  Li24  1  0.07938273  0.45608008  0.37866151  1
  Li  Li25  1  0.42061727  -0.45608008  0.87866151  1
  Li  Li26  1  -0.07938273  0.95608008  -0.37866151  1
  Li  Li27  1  0.57938273  0.04391992  0.12133849  1
  Li  Li28  1  -0.07938273  -0.45608008  -0.37866151  1
  Li  Li29  1  0.57938273  0.45608008  0.12133849  1
  Li  Li30  1  0.07938273  0.04391992  0.37866151  1
  Li  Li31  1  0.42061727  0.95608008  0.87866151  1
  Li  Li32  1  0.80023525  0.25000000  0.21121906  1
  Li  Li33  1  0.69976475  0.75000000  0.71121906  1
  Li  Li34  1  0.19976475  0.75000000  0.78878094  1
  Li  Li35  1  0.30023525  0.25000000  0.28878094  1
  Li  Li36  1  0.04633590  0.25000000  0.24164428  1
  Li  Li37  1  0.45366410  0.75000000  0.74164428  1
  Li  Li38  1  0.95366410  0.75000000  0.75835572  1
  Li  Li39  1  0.54633590  0.25000000  0.25835572  1
  Li  Li40  1  0.36393427  0.25000000  0.90940540  1
  Li  Li41  1  0.13606573  0.75000000  0.40940540  1
  Li  Li42  1  0.63606573  0.75000000  0.09059460  1
  Li  Li43  1  0.86393427  0.25000000  0.59059460  1
  Li  Li44  1  0.00000000  0.00000000  0.00000000  1
  Li  Li45  1  0.50000000  0.00000000  0.50000000  1
  Li  Li46  1  0.00000000  0.50000000  -0.00000000  1
  Li  Li47  1  0.50000000  0.50000000  0.50000000  1
