# generated using pymatgen
data_LiF
_symmetry_space_group_name_H-M   'P 1'
_cell_length_a   8.54952694
_cell_length_b   8.54952694
_cell_length_c   4.55763555
_cell_angle_alpha   90.00000000
_cell_angle_beta   90.00000000
_cell_angle_gamma   120.00000000
_symmetry_Int_Tables_number   1
_chemical_formula_structural   LiF
_chemical_formula_sum   'Li18 F18'
_cell_volume   288.50569872
_cell_formula_units_Z   18
loop_
 _symmetry_equiv_pos_site_id
 _symmetry_equiv_pos_as_xyz
  1  'x, y, z'
loop_
 _atom_site_type_symbol
 _atom_site_label
 _atom_site_symmetry_multiplicity
 _atom_site_fract_x
 _atom_site_fract_y
 _atom_site_fract_z
 _atom_site_occupancy
  F  F0  1  0.24431060  0.86699430  0.23619085  1
  F  F1  1  0.13300570  0.37731630  0.23619085  1
  F  F2  1  0.62268370  0.75568940  0.23619085  1
  F  F3  1  0.13300570  0.75568940  0.76380915  1
  F  F4  1  0.62268370  0.86699430  0.76380915  1
  F  F5  1  0.24431060  0.37731630  0.76380915  1
  F  F6  1  0.00000000  0.00000000  0.74589823  1
  F  F7  1  0.00000000  0.00000000  0.25410177  1
  F  F8  1  0.18042936  0.68225404  0.94280202  1
  F  F9  1  0.31774596  0.49817533  0.94280202  1
  F  F10  1  0.50182467  0.81957064  0.94280202  1
  F  F11  1  0.31774596  0.81957064  0.05719798  1
  F  F12  1  0.50182467  0.68225404  0.05719798  1
  F  F13  1  0.18042936  0.49817533  0.05719798  1
  F  F14  1  0.90666023  0.09333977  0.00000000  1
  F  F15  1  0.90666023  0.81332047  0.00000000  1
  F  F16  1  0.18667953  0.09333977  0.00000000  1
  F  F17  1  0.00000000  0.00000000  0.50000000  1
  Li  Li18  1  0.66666667  0.33333333  0.50000000  1
  Li  Li19  1  0.83350972  0.16649028  0.50000000  1
  Li  Li20  1  0.83350972  0.66701943  0.50000000  1
  Li  Li21  1  0.33298057  0.16649028  0.50000000  1
  Li  Li22  1  0.36995711  0.53475628  0.64985944  1
  Li  Li23  1  -0.53475628  -0.16479917  0.64985944  1
  Li  Li24  1  0.16479917  -0.36995711  0.64985944  1
  Li  Li25  1  -0.53475628  -0.36995711  -0.64985944  1
  Li  Li26  1  0.16479917  0.53475628  -0.64985944  1
  Li  Li27  1  0.36995711  -0.16479917  -0.64985944  1
  Li  Li28  1  0.66666667  0.33333333  0.00000000  1
  Li  Li29  1  0.71880429  0.11431715  0.19294714  1
  Li  Li30  1  0.88568285  0.60448714  0.19294714  1
  Li  Li31  1  0.39551286  0.28119571  0.19294714  1
  Li  Li32  1  0.88568285  0.28119571  0.80705286  1
  Li  Li33  1  0.39551286  0.11431715  0.80705286  1
  Li  Li34  1  0.71880429  0.60448714  0.80705286  1
  Li  Li35  1  0.33333333  0.66666667  0.00000000  1
