# generated using pymatgen
data_LiF
_symmetry_space_group_name_H-M   'P 1'
_cell_length_a   7.59945131
_cell_length_b   7.59945131
_cell_length_c   12.39426850
_cell_angle_alpha   90.00000000
_cell_angle_beta   90.00000000
_cell_angle_gamma   120.00000000
_symmetry_Int_Tables_number   1
_chemical_formula_structural   LiF
_chemical_formula_sum   'Li20 F20'
_cell_volume   619.89196234
_cell_formula_units_Z   20
loop_
 _symmetry_equiv_pos_site_id
 _symmetry_equiv_pos_as_xyz
  1  'x, y, z'
loop_
 _atom_site_type_symbol
 _atom_site_label
 _atom_site_symmetry_multiplicity
 _atom_site_fract_x
 _atom_site_fract_y
 _atom_site_fract_z
 _atom_site_occupancy
  F  F0  1  0.44713016  0.51172858  0.68028760  1
  F  F1  1  0.48827142  0.93540159  0.68028760  1
  F  F2  1  0.06459841  0.55286984  0.68028760  1
  F  F3  1  0.48827142  0.55286984  0.31971240  1
  F  F4  1  0.06459841  0.51172858  0.31971240  1
  F  F5  1  0.44713016  0.93540159  0.31971240  1
  F  F6  1  0.00000000  0.00000000  0.50000000  1
  F  F7  1  0.27555927  0.14921754  0.87835276  1
  F  F8  1  0.85078246  0.12634173  0.87835276  1
  F  F9  1  0.87365827  0.72444073  0.87835276  1
  F  F10  1  0.85078246  0.72444073  0.12164724  1
  F  F11  1  0.87365827  0.14921754  0.12164724  1
  F  F12  1  0.27555927  0.12634173  0.12164724  1
  F  F13  1  0.66666667  0.33333333  0.36816149  1
  F  F14  1  0.66666667  0.33333333  0.63183851  1
  F  F15  1  0.25487913  0.74512087  0.00000000  1
  F  F16  1  0.25487913  0.50975826  0.00000000  1
  F  F17  1  0.49024174  0.74512087  0.00000000  1
  F  F18  1  0.00000000  0.00000000  0.93984688  1
  F  F19  1  0.00000000  0.00000000  0.06015312  1
  Li  Li20  1  0.66666667  0.33333333  0.00000000  1
  Li  Li21  1  0.66666667  0.33333333  0.80774909  1
  Li  Li22  1  0.66666667  0.33333333  0.19225091  1
  Li  Li23  1  0.71672087  0.70182421  0.90017110  1
  Li  Li24  1  -0.70182421  0.01489667  0.90017110  1
  Li  Li25  1  -0.01489667  -0.71672087  0.90017110  1
  Li  Li26  1  -0.70182421  -0.71672087  -0.90017110  1
  Li  Li27  1  -0.01489667  0.70182421  -0.90017110  1
  Li  Li28  1  0.71672087  0.01489667  -0.90017110  1
  Li  Li29  1  0.71614674  0.82702615  0.29392787  1
  Li  Li30  1  0.17297385  0.88912059  0.29392787  1
  Li  Li31  1  0.11087941  0.28385326  0.29392787  1
  Li  Li32  1  0.17297385  0.28385326  0.70607213  1
  Li  Li33  1  0.11087941  0.82702615  0.70607213  1
  Li  Li34  1  0.71614674  0.88912059  0.70607213  1
  Li  Li35  1  0.33333333  0.66666667  0.50000000  1
  Li  Li36  1  0.66666667  0.33333333  0.50000000  1
  Li  Li37  1  0.33333333  0.66666667  0.00000000  1
  Li  Li38  1  0.33333333  0.66666667  0.70232638  1
  Li  Li39  1  0.33333333  0.66666667  0.29767362  1
