# generated using pymatgen
data_LiF
_symmetry_space_group_name_H-M   'P 1'
_cell_length_a   8.14755608
_cell_length_b   8.14755608
_cell_length_c   9.67199340
_cell_angle_alpha   90.00000000
_cell_angle_beta   90.00000000
_cell_angle_gamma   120.00000000
_symmetry_Int_Tables_number   1
_chemical_formula_structural   LiF
_chemical_formula_sum   'Li20 F20'
_cell_volume   556.03398936
_cell_formula_units_Z   20
loop_
 _symmetry_equiv_pos_site_id
 _symmetry_equiv_pos_as_xyz
  1  'x, y, z'
loop_
 _atom_site_type_symbol
 _atom_site_label
 _atom_site_symmetry_multiplicity
 _atom_site_fract_x
 _atom_site_fract_y
 _atom_site_fract_z
 _atom_site_occupancy
  F  F0  1  0.56283298  0.38239314  0.38154148  1
  F  F1  1  0.61760686  0.18043984  0.38154148  1
  F  F2  1  0.81956016  0.43716702  0.38154148  1
  F  F3  1  0.61760686  0.43716702  0.61845852  1
  F  F4  1  0.81956016  0.38239314  0.61845852  1
  F  F5  1  0.56283298  0.18043984  0.61845852  1
  F  F6  1  0.40996116  0.59003884  0.00000000  1
  F  F7  1  0.40996116  0.81992231  0.00000000  1
  F  F8  1  0.18007769  0.59003884  0.00000000  1
  F  F9  1  0.18238931  0.81761069  0.00000000  1
  F  F10  1  0.18238931  0.36477861  0.00000000  1
  F  F11  1  0.63522139  0.81761069  0.00000000  1
  F  F12  1  0.63959115  0.45928513  0.78864553  1
  F  F13  1  0.54071487  0.18030602  0.78864553  1
  F  F14  1  0.81969398  0.36040885  0.78864553  1
  F  F15  1  0.54071487  0.36040885  0.21135447  1
  F  F16  1  0.81969398  0.45928513  0.21135447  1
  F  F17  1  0.63959115  0.18030602  0.21135447  1
  F  F18  1  0.00000000  0.00000000  0.54144080  1
  F  F19  1  0.00000000  0.00000000  0.45855920  1
  Li  Li20  1  0.29668520  0.28517007  0.54486936  1
  Li  Li21  1  -0.28517007  0.01151514  0.54486936  1
  Li  Li22  1  -0.01151514  -0.29668520  0.54486936  1
  Li  Li23  1  -0.28517007  -0.29668520  -0.54486936  1
  Li  Li24  1  -0.01151514  0.28517007  -0.54486936  1
  Li  Li25  1  0.29668520  0.01151514  -0.54486936  1
  Li  Li26  1  0.98061934  0.10262284  0.24102841  1
  Li  Li27  1  0.89737716  0.87799650  0.24102841  1
  Li  Li28  1  0.12200350  0.01938066  0.24102841  1
  Li  Li29  1  0.89737716  0.01938066  0.75897159  1
  Li  Li30  1  0.12200350  0.10262284  0.75897159  1
  Li  Li31  1  0.98061934  0.87799650  0.75897159  1
  Li  Li32  1  0.33333333  0.66666667  0.00000000  1
  Li  Li33  1  0.00000000  0.00000000  0.00000000  1
  Li  Li34  1  0.33333333  0.66666667  0.50000000  1
  Li  Li35  1  0.42979367  0.57020633  0.50000000  1
  Li  Li36  1  0.42979367  0.85958734  0.50000000  1
  Li  Li37  1  0.14041266  0.57020633  0.50000000  1
  Li  Li38  1  0.33333333  0.66666667  0.71079207  1
  Li  Li39  1  0.33333333  0.66666667  0.28920793  1
