# generated using pymatgen
data_LiF
_symmetry_space_group_name_H-M   'P 1'
_cell_length_a   8.85905197
_cell_length_b   7.96017759
_cell_length_c   13.16534163
_cell_angle_alpha   90.00000000
_cell_angle_beta   90.00000000
_cell_angle_gamma   90.00000000
_symmetry_Int_Tables_number   1
_chemical_formula_structural   LiF
_chemical_formula_sum   'Li24 F24'
_cell_volume   928.41497956
_cell_formula_units_Z   24
loop_
 _symmetry_equiv_pos_site_id
 _symmetry_equiv_pos_as_xyz
  1  'x, y, z'
loop_
 _atom_site_type_symbol
 _atom_site_label
 _atom_site_symmetry_multiplicity
 _atom_site_fract_x
 _atom_site_fract_y
 _atom_site_fract_z
 _atom_site_occupancy
  F  F0  1  0.42228921  0.25000000  0.98782076  1
  F  F1  1  0.07771079  0.75000000  0.48782076  1
  F  F2  1  0.57771079  0.75000000  0.01217924  1
  F  F3  1  0.92228921  0.25000000  0.51217924  1
  F  F4  1  0.94883024  0.17569405  0.54430174  1
  F  F5  1  -0.44883024  -0.17569405  1.04430174  1
  F  F6  1  -0.94883024  0.67569405  -0.54430174  1
  F  F7  1  1.44883024  0.32430595  -0.04430174  1
  F  F8  1  -0.94883024  -0.17569405  -0.54430174  1
  F  F9  1  1.44883024  0.17569405  -0.04430174  1
  F  F10  1  0.94883024  0.32430595  0.54430174  1
  F  F11  1  -0.44883024  0.67569405  1.04430174  1
  F  F12  1  0.75505126  0.25000000  0.37728353  1
  F  F13  1  0.74494874  0.75000000  0.87728353  1
  F  F14  1  0.24494874  0.75000000  0.62271647  1
  F  F15  1  0.25505126  0.25000000  0.12271647  1
  F  F16  1  0.51473504  0.61453381  0.07466069  1
  F  F17  1  0.98526496  0.38546619  0.57466069  1
  F  F18  1  0.48526496  0.11453381  0.92533931  1
  F  F19  1  0.01473504  0.88546619  0.42533931  1
  F  F20  1  0.48526496  0.38546619  0.92533931  1
  F  F21  1  0.01473504  0.61453381  0.42533931  1
  F  F22  1  0.51473504  0.88546619  0.07466069  1
  F  F23  1  0.98526496  0.11453381  0.57466069  1
  Li  Li24  1  0.28880222  0.25000000  0.97301901  1
  Li  Li25  1  0.21119778  0.75000000  0.47301901  1
  Li  Li26  1  0.71119778  0.75000000  0.02698099  1
  Li  Li27  1  0.78880222  0.25000000  0.52698099  1
  Li  Li28  1  0.71017947  0.25000000  0.10324827  1
  Li  Li29  1  0.78982053  0.75000000  0.60324827  1
  Li  Li30  1  0.28982053  0.75000000  0.89675173  1
  Li  Li31  1  0.21017947  0.25000000  0.39675173  1
  Li  Li32  1  0.00000000  0.00000000  0.50000000  1
  Li  Li33  1  0.50000000  0.00000000  0.00000000  1
  Li  Li34  1  0.00000000  0.50000000  0.50000000  1
  Li  Li35  1  0.50000000  0.50000000  0.00000000  1
  Li  Li36  1  0.96549110  0.25000000  0.97464361  1
  Li  Li37  1  0.53450890  0.75000000  0.47464361  1
  Li  Li38  1  0.03450890  0.75000000  0.02535639  1
  Li  Li39  1  0.46549110  0.25000000  0.52535639  1
  Li  Li40  1  0.38472979  0.25000000  0.33935901  1
  Li  Li41  1  0.11527021  0.75000000  0.83935901  1
  Li  Li42  1  0.61527021  0.75000000  0.66064099  1
  Li  Li43  1  0.88472979  0.25000000  0.16064099  1
  Li  Li44  1  0.00000000  0.00000000  0.00000000  1
  Li  Li45  1  0.50000000  0.00000000  0.50000000  1
  Li  Li46  1  0.00000000  0.50000000  0.00000000  1
  Li  Li47  1  0.50000000  0.50000000  0.50000000  1
