# generated using pymatgen
data_LiF
_symmetry_space_group_name_H-M   'P 1'
_cell_length_a   11.79826968
_cell_length_b   4.42155977
_cell_length_c   14.57716210
_cell_angle_alpha   90.00000000
_cell_angle_beta   90.00000000
_cell_angle_gamma   90.00000000
_symmetry_Int_Tables_number   1
_chemical_formula_structural   LiF
_chemical_formula_sum   'Li24 F24'
_cell_volume   760.44323847
_cell_formula_units_Z   24
loop_
 _symmetry_equiv_pos_site_id
 _symmetry_equiv_pos_as_xyz
  1  'x, y, z'
loop_
 _atom_site_type_symbol
 _atom_site_label
 _atom_site_symmetry_multiplicity
 _atom_site_fract_x
 _atom_site_fract_y
 _atom_site_fract_z
 _atom_site_occupancy
  F  F0  1  0.57037276  0.32424417  0.97181052  1
  F  F1  1  0.92962724  0.67575583  0.47181052  1
  F  F2  1  0.42962724  0.82424417  0.02818948  1
  F  F3  1  0.07037276  0.17575583  0.52818948  1
  F  F4  1  0.42962724  0.67575583  0.02818948  1
  F  F5  1  0.07037276  0.32424417  0.52818948  1
  F  F6  1  0.57037276  0.17575583  0.97181052  1
  F  F7  1  0.92962724  0.82424417  0.47181052  1
  F  F8  1  0.63682505  0.25000000  0.37369049  1
  F  F9  1  0.86317495  0.75000000  0.87369049  1
  F  F10  1  0.36317495  0.75000000  0.62630951  1
  F  F11  1  0.13682505  0.25000000  0.12630951  1
  F  F12  1  0.32171086  0.57912621  0.87989398  1
  F  F13  1  0.17828914  0.42087379  0.37989398  1
  F  F14  1  0.67828914  0.07912621  0.12010602  1
  F  F15  1  0.82171086  0.92087379  0.62010602  1
  F  F16  1  0.67828914  0.42087379  0.12010602  1
  F  F17  1  0.82171086  0.57912621  0.62010602  1
  F  F18  1  0.32171086  0.92087379  0.87989398  1
  F  F19  1  0.17828914  0.07912621  0.37989398  1
  F  F20  1  0.10369813  0.25000000  0.58746098  1
  F  F21  1  0.39630187  0.75000000  0.08746098  1
  F  F22  1  0.89630187  0.75000000  0.41253902  1
  F  F23  1  0.60369813  0.25000000  0.91253902  1
  Li  Li24  1  0.00000000  0.00000000  0.50000000  1
  Li  Li25  1  0.50000000  0.00000000  0.00000000  1
  Li  Li26  1  0.00000000  0.50000000  0.50000000  1
  Li  Li27  1  0.50000000  0.50000000  0.00000000  1
  Li  Li28  1  0.00000000  0.00000000  0.00000000  1
  Li  Li29  1  0.50000000  0.00000000  0.50000000  1
  Li  Li30  1  0.00000000  0.50000000  0.00000000  1
  Li  Li31  1  0.50000000  0.50000000  0.50000000  1
  Li  Li32  1  0.75525227  0.25000000  0.69512539  1
  Li  Li33  1  0.74474773  0.75000000  0.19512539  1
  Li  Li34  1  0.24474773  0.75000000  0.30487461  1
  Li  Li35  1  0.25525227  0.25000000  0.80487461  1
  Li  Li36  1  0.98490074  0.43413339  0.70171724  1
  Li  Li37  1  -0.48490074  -0.43413339  1.20171724  1
  Li  Li38  1  -0.98490074  0.93413339  -0.70171724  1
  Li  Li39  1  1.48490074  0.06586661  -0.20171724  1
  Li  Li40  1  -0.98490074  -0.43413339  -0.70171724  1
  Li  Li41  1  1.48490074  0.43413339  -0.20171724  1
  Li  Li42  1  0.98490074  0.06586661  0.70171724  1
  Li  Li43  1  -0.48490074  0.93413339  1.20171724  1
  Li  Li44  1  0.54941411  0.25000000  0.20265622  1
  Li  Li45  1  0.95058589  0.75000000  0.70265622  1
  Li  Li46  1  0.45058589  0.75000000  0.79734378  1
  Li  Li47  1  0.04941411  0.25000000  0.29734378  1
