# generated using pymatgen
data_Li2Y2MoP3
_symmetry_space_group_name_H-M   'P 1'
_cell_length_a   5.30590589
_cell_length_b   5.51177116
_cell_length_c   7.31526478
_cell_angle_alpha   94.32261128
_cell_angle_beta   99.41374872
_cell_angle_gamma   107.36221153
_symmetry_Int_Tables_number   1
_chemical_formula_structural   Li2Y2MoP3
_chemical_formula_sum   'Li2 Y2 Mo1 P3'
_cell_volume   199.67768966
_cell_formula_units_Z   1
loop_
 _symmetry_equiv_pos_site_id
 _symmetry_equiv_pos_as_xyz
  1  'x, y, z'
loop_
 _atom_site_type_symbol
 _atom_site_label
 _atom_site_symmetry_multiplicity
 _atom_site_fract_x
 _atom_site_fract_y
 _atom_site_fract_z
 _atom_site_occupancy
  P  P0  1  0.12500000  0.12500000  0.12500000  1
  P  P1  1  0.50000000  0.50000000  0.50000000  1
  P  P2  1  0.25000000  0.25000000  0.25000000  1
  Mo  Mo3  1  0.75000000  0.75000000  0.75000000  1
  Li  Li4  1  0.97226302  0.23709919  0.25550321  1
  Li  Li5  1  0.32204585  0.55988895  0.58722080  1
  Y  Y6  1  0.98561572  0.65219267  0.89435947  1
  Y  Y7  1  0.92020342  0.85622442  0.23298393  1
