# generated using pymatgen
data_LiF
_symmetry_space_group_name_H-M   'P 1'
_cell_length_a   6.86815130
_cell_length_b   6.86815130
_cell_length_c   14.66894883
_cell_angle_alpha   90.00000000
_cell_angle_beta   90.00000000
_cell_angle_gamma   120.00000000
_symmetry_Int_Tables_number   1
_chemical_formula_structural   LiF
_chemical_formula_sum   'Li17 F17'
_cell_volume   599.25178066
_cell_formula_units_Z   17
loop_
 _symmetry_equiv_pos_site_id
 _symmetry_equiv_pos_as_xyz
  1  'x, y, z'
loop_
 _atom_site_type_symbol
 _atom_site_label
 _atom_site_symmetry_multiplicity
 _atom_site_fract_x
 _atom_site_fract_y
 _atom_site_fract_z
 _atom_site_occupancy
  F  F0  1  0.94323773  0.68491443  0.46985927  1
  F  F1  1  0.31508557  0.25832330  0.46985927  1
  F  F2  1  0.74167670  0.05676227  0.46985927  1
  F  F3  1  0.31508557  0.05676227  0.53014073  1
  F  F4  1  0.74167670  0.68491443  0.53014073  1
  F  F5  1  0.94323773  0.25832330  0.53014073  1
  F  F6  1  0.25588476  0.02763109  0.06908478  1
  F  F7  1  0.97236891  0.22825367  0.06908478  1
  F  F8  1  0.77174633  0.74411524  0.06908478  1
  F  F9  1  0.97236891  0.74411524  0.93091522  1
  F  F10  1  0.77174633  0.02763109  0.93091522  1
  F  F11  1  0.25588476  0.22825367  0.93091522  1
  F  F12  1  0.33333333  0.66666667  0.50000000  1
  F  F13  1  0.48335694  0.51664306  0.00000000  1
  F  F14  1  0.48335694  0.96671389  0.00000000  1
  F  F15  1  0.03328611  0.51664306  0.00000000  1
  F  F16  1  0.00000000  0.00000000  0.00000000  1
  Li  Li17  1  0.66666667  0.33333333  0.50000000  1
  Li  Li18  1  0.33333333  0.66666667  0.32177570  1
  Li  Li19  1  0.33333333  0.66666667  0.67822430  1
  Li  Li20  1  0.06807100  0.65421441  0.39134920  1
  Li  Li21  1  -0.65421441  -0.58614340  0.39134920  1
  Li  Li22  1  0.58614340  -0.06807100  0.39134920  1
  Li  Li23  1  -0.65421441  -0.06807100  -0.39134920  1
  Li  Li24  1  0.58614340  0.65421441  -0.39134920  1
  Li  Li25  1  0.06807100  -0.58614340  -0.39134920  1
  Li  Li26  1  0.10293194  0.70727048  0.58640153  1
  Li  Li27  1  0.29272952  0.39566146  0.58640153  1
  Li  Li28  1  0.60433854  0.89706806  0.58640153  1
  Li  Li29  1  0.29272952  0.89706806  0.41359847  1
  Li  Li30  1  0.60433854  0.70727048  0.41359847  1
  Li  Li31  1  0.10293194  0.39566146  0.41359847  1
  Li  Li32  1  0.66666667  0.33333333  0.00000000  1
  Li  Li33  1  0.33333333  0.66666667  0.00000000  1
