# generated using pymatgen
data_LiF
_symmetry_space_group_name_H-M   'P 1'
_cell_length_a   13.30426609
_cell_length_b   11.74145376
_cell_length_c   4.99586393
_cell_angle_alpha   90.00000000
_cell_angle_beta   90.00000000
_cell_angle_gamma   90.00000000
_symmetry_Int_Tables_number   1
_chemical_formula_structural   LiF
_chemical_formula_sum   'Li30 F30'
_cell_volume   780.41102416
_cell_formula_units_Z   30
loop_
 _symmetry_equiv_pos_site_id
 _symmetry_equiv_pos_as_xyz
  1  'x, y, z'
loop_
 _atom_site_type_symbol
 _atom_site_label
 _atom_site_symmetry_multiplicity
 _atom_site_fract_x
 _atom_site_fract_y
 _atom_site_fract_z
 _atom_site_occupancy
  F  F0  1  0.00000000  0.00000000  0.10666281  1
  F  F1  1  0.50000000  0.50000000  0.89333719  1
  F  F2  1  0.00000000  0.00000000  0.89333719  1
  F  F3  1  0.50000000  0.50000000  0.10666281  1
  F  F4  1  0.25433796  0.98284908  0.70825187  1
  F  F5  1  -0.25433796  -0.98284908  0.70825187  1
  F  F6  1  0.24566204  1.48284908  -0.70825187  1
  F  F7  1  0.75433796  -0.48284908  -0.70825187  1
  F  F8  1  -0.25433796  -0.98284908  -0.70825187  1
  F  F9  1  0.25433796  0.98284908  -0.70825187  1
  F  F10  1  0.75433796  -0.48284908  0.70825187  1
  F  F11  1  0.24566204  1.48284908  0.70825187  1
  F  F12  1  0.46906038  0.46290680  0.73129687  1
  F  F13  1  0.53093962  0.53709320  0.73129687  1
  F  F14  1  0.03093962  0.96290680  0.26870313  1
  F  F15  1  0.96906038  0.03709320  0.26870313  1
  F  F16  1  0.53093962  0.53709320  0.26870313  1
  F  F17  1  0.46906038  0.46290680  0.26870313  1
  F  F18  1  0.96906038  0.03709320  0.73129687  1
  F  F19  1  0.03093962  0.96290680  0.73129687  1
  F  F20  1  0.84273451  0.99175734  0.75296788  1
  F  F21  1  0.15726549  0.00824266  0.75296788  1
  F  F22  1  0.65726549  0.49175734  0.24703212  1
  F  F23  1  0.34273451  0.50824266  0.24703212  1
  F  F24  1  0.15726549  0.00824266  0.24703212  1
  F  F25  1  0.84273451  0.99175734  0.24703212  1
  F  F26  1  0.34273451  0.50824266  0.75296788  1
  F  F27  1  0.65726549  0.49175734  0.75296788  1
  F  F28  1  0.00000000  0.00000000  0.50000000  1
  F  F29  1  0.50000000  0.50000000  0.50000000  1
  Li  Li30  1  0.39513765  0.21854209  0.50000000  1
  Li  Li31  1  0.60486235  0.78145791  0.50000000  1
  Li  Li32  1  0.10486235  0.71854209  0.50000000  1
  Li  Li33  1  0.89513765  0.28145791  0.50000000  1
  Li  Li34  1  0.07697223  0.99835946  0.85246654  1
  Li  Li35  1  0.92302777  0.00164054  0.85246654  1
  Li  Li36  1  0.42302777  0.49835946  0.14753346  1
  Li  Li37  1  0.57697223  0.50164054  0.14753346  1
  Li  Li38  1  0.92302777  0.00164054  0.14753346  1
  Li  Li39  1  0.07697223  0.99835946  0.14753346  1
  Li  Li40  1  0.57697223  0.50164054  0.85246654  1
  Li  Li41  1  0.42302777  0.49835946  0.85246654  1
  Li  Li42  1  0.00000000  0.50000000  0.00000000  1
  Li  Li43  1  0.50000000  0.00000000  0.00000000  1
  Li  Li44  1  0.50601487  0.64881517  0.68459940  1
  Li  Li45  1  0.49398513  0.35118483  0.68459940  1
  Li  Li46  1  0.99398513  0.14881517  0.31540060  1
  Li  Li47  1  0.00601487  0.85118483  0.31540060  1
  Li  Li48  1  0.49398513  0.35118483  0.31540060  1
  Li  Li49  1  0.50601487  0.64881517  0.31540060  1
  Li  Li50  1  0.00601487  0.85118483  0.68459940  1
  Li  Li51  1  0.99398513  0.14881517  0.68459940  1
  Li  Li52  1  0.28166705  0.24630259  0.69148001  1
  Li  Li53  1  0.71833295  0.75369741  0.69148001  1
  Li  Li54  1  0.21833295  0.74630259  0.30851999  1
  Li  Li55  1  0.78166705  0.25369741  0.30851999  1
  Li  Li56  1  0.71833295  0.75369741  0.30851999  1
  Li  Li57  1  0.28166705  0.24630259  0.30851999  1
  Li  Li58  1  0.78166705  0.25369741  0.69148001  1
  Li  Li59  1  0.21833295  0.74630259  0.69148001  1
