# generated using pymatgen
data_Li2Si4Te3F12
_symmetry_space_group_name_H-M   'P 1'
_cell_length_a   8.06564309
_cell_length_b   8.82654889
_cell_length_c   16.16075180
_cell_angle_alpha   90.00000000
_cell_angle_beta   90.00000000
_cell_angle_gamma   90.00000000
_symmetry_Int_Tables_number   1
_chemical_formula_structural   Li2Si4Te3F12
_chemical_formula_sum   'Li8 Si16 Te12 F48'
_cell_volume   1150.51289748
_cell_formula_units_Z   4
loop_
 _symmetry_equiv_pos_site_id
 _symmetry_equiv_pos_as_xyz
  1  'x, y, z'
loop_
 _atom_site_type_symbol
 _atom_site_label
 _atom_site_symmetry_multiplicity
 _atom_site_fract_x
 _atom_site_fract_y
 _atom_site_fract_z
 _atom_site_occupancy
  F  F0  1  0.66376232  0.62868253  0.96833212  1
  F  F1  1  -0.66376232  -0.62868253  0.96833212  1
  F  F2  1  -0.16376232  1.12868253  -0.46833212  1
  F  F3  1  1.16376232  -0.12868253  -0.46833212  1
  F  F4  1  -0.66376232  -0.62868253  -0.96833212  1
  F  F5  1  0.66376232  0.62868253  -0.96833212  1
  F  F6  1  1.16376232  -0.12868253  1.46833212  1
  F  F7  1  -0.16376232  1.12868253  1.46833212  1
  F  F8  1  0.16535681  0.12581188  0.31171559  1
  F  F9  1  0.83464319  0.87418812  0.31171559  1
  F  F10  1  0.33464319  0.62581188  0.18828441  1
  F  F11  1  0.66535681  0.37418812  0.18828441  1
  F  F12  1  0.83464319  0.87418812  0.68828441  1
  F  F13  1  0.16535681  0.12581188  0.68828441  1
  F  F14  1  0.66535681  0.37418812  0.81171559  1
  F  F15  1  0.33464319  0.62581188  0.81171559  1
  F  F16  1  0.49054625  0.71062439  0.64315031  1
  F  F17  1  0.50945375  0.28937561  0.64315031  1
  F  F18  1  0.00945375  0.21062439  0.85684969  1
  F  F19  1  0.99054625  0.78937561  0.85684969  1
  F  F20  1  0.50945375  0.28937561  0.35684969  1
  F  F21  1  0.49054625  0.71062439  0.35684969  1
  F  F22  1  0.99054625  0.78937561  0.14315031  1
  F  F23  1  0.00945375  0.21062439  0.14315031  1
  F  F24  1  0.09809061  0.65270668  0.89210527  1
  F  F25  1  0.90190939  0.34729332  0.89210527  1
  F  F26  1  0.40190939  0.15270668  0.60789473  1
  F  F27  1  0.59809061  0.84729332  0.60789473  1
  F  F28  1  0.90190939  0.34729332  0.10789473  1
  F  F29  1  0.09809061  0.65270668  0.10789473  1
  F  F30  1  0.59809061  0.84729332  0.39210527  1
  F  F31  1  0.40190939  0.15270668  0.39210527  1
  F  F32  1  0.71625170  0.13020018  0.28750179  1
  F  F33  1  0.28374830  0.86979982  0.28750179  1
  F  F34  1  0.78374830  0.63020018  0.21249821  1
  F  F35  1  0.21625170  0.36979982  0.21249821  1
  F  F36  1  0.28374830  0.86979982  0.71249821  1
  F  F37  1  0.71625170  0.13020018  0.71249821  1
  F  F38  1  0.21625170  0.36979982  0.78750179  1
  F  F39  1  0.78374830  0.63020018  0.78750179  1
  F  F40  1  0.00000000  0.00000000  0.50000000  1
  F  F41  1  0.50000000  0.50000000  0.00000000  1
  F  F42  1  0.00000000  0.50000000  0.50000000  1
  F  F43  1  0.50000000  0.00000000  0.00000000  1
  F  F44  1  0.00000000  0.50000000  0.64423653  1
  F  F45  1  0.50000000  0.00000000  0.85576347  1
  F  F46  1  0.00000000  0.50000000  0.35576347  1
  F  F47  1  0.50000000  0.00000000  0.14423653  1
  Li  Li48  1  0.00000000  0.50000000  0.12129345  1
  Li  Li49  1  0.50000000  0.00000000  0.37870655  1
  Li  Li50  1  0.00000000  0.50000000  0.87870655  1
  Li  Li51  1  0.50000000  0.00000000  0.62129345  1
  Li  Li52  1  0.00000000  0.00000000  0.65206066  1
  Li  Li53  1  0.50000000  0.50000000  0.84793934  1
  Li  Li54  1  0.00000000  0.00000000  0.34793934  1
  Li  Li55  1  0.50000000  0.50000000  0.15206066  1
  Si  Si56  1  0.00000000  0.50000000  0.00000000  1
  Si  Si57  1  0.50000000  0.00000000  0.50000000  1
  Si  Si58  1  0.50426230  0.78595968  -0.00000000  1
  Si  Si59  1  0.49573770  0.21404032  -0.00000000  1
  Si  Si60  1  0.99573770  0.28595968  0.50000000  1
  Si  Si61  1  0.00426230  0.71404032  0.50000000  1
  Si  Si62  1  0.00000000  0.00000000  0.00000000  1
  Si  Si63  1  0.50000000  0.50000000  0.50000000  1
  Si  Si64  1  0.32766590  0.98724909  0.00000000  1
  Si  Si65  1  0.67233410  0.01275091  0.00000000  1
  Si  Si66  1  0.17233410  0.48724909  0.50000000  1
  Si  Si67  1  0.82766590  0.51275091  0.50000000  1
  Si  Si68  1  0.00000000  0.00000000  0.23536153  1
  Si  Si69  1  0.50000000  0.50000000  0.26463847  1
  Si  Si70  1  0.00000000  0.00000000  0.76463847  1
  Si  Si71  1  0.50000000  0.50000000  0.73536153  1
  Te  Te72  1  0.00000000  0.50000000  0.25547916  1
  Te  Te73  1  0.50000000  0.00000000  0.24452084  1
  Te  Te74  1  0.00000000  0.50000000  0.74452084  1
  Te  Te75  1  0.50000000  0.00000000  0.75547916  1
  Te  Te76  1  0.35961922  0.61079155  0.92990339  1
  Te  Te77  1  0.64038078  0.38920845  0.92990339  1
  Te  Te78  1  0.14038078  0.11079155  0.57009661  1
  Te  Te79  1  0.85961922  0.88920845  0.57009661  1
  Te  Te80  1  0.64038078  0.38920845  0.07009661  1
  Te  Te81  1  0.35961922  0.61079155  0.07009661  1
  Te  Te82  1  0.85961922  0.88920845  0.42990339  1
  Te  Te83  1  0.14038078  0.11079155  0.42990339  1
