# generated using pymatgen
data_LiF
_symmetry_space_group_name_H-M   'P 1'
_cell_length_a   9.80175682
_cell_length_b   6.34665986
_cell_length_c   14.09805658
_cell_angle_alpha   90.00000000
_cell_angle_beta   90.00000000
_cell_angle_gamma   90.00000000
_symmetry_Int_Tables_number   1
_chemical_formula_structural   LiF
_chemical_formula_sum   'Li40 F40'
_cell_volume   877.01777587
_cell_formula_units_Z   40
loop_
 _symmetry_equiv_pos_site_id
 _symmetry_equiv_pos_as_xyz
  1  'x, y, z'
loop_
 _atom_site_type_symbol
 _atom_site_label
 _atom_site_symmetry_multiplicity
 _atom_site_fract_x
 _atom_site_fract_y
 _atom_site_fract_z
 _atom_site_occupancy
  F  F0  1  0.94191263  0.25000000  0.98259069  1
  F  F1  1  0.55808737  0.75000000  0.48259069  1
  F  F2  1  0.05808737  0.75000000  0.01740931  1
  F  F3  1  0.44191263  0.25000000  0.51740931  1
  F  F4  1  0.37096683  0.95457430  0.87198725  1
  F  F5  1  0.12903317  0.04542570  0.37198725  1
  F  F6  1  0.62903317  0.45457430  0.12801275  1
  F  F7  1  0.87096683  0.54542570  0.62801275  1
  F  F8  1  0.62903317  0.04542570  0.12801275  1
  F  F9  1  0.87096683  0.95457430  0.62801275  1
  F  F10  1  0.37096683  0.54542570  0.87198725  1
  F  F11  1  0.12903317  0.45457430  0.37198725  1
  F  F12  1  0.71606407  0.49869689  0.89805132  1
  F  F13  1  0.78393593  0.50130311  0.39805132  1
  F  F14  1  0.28393593  0.99869689  0.10194868  1
  F  F15  1  0.21606407  0.00130311  0.60194868  1
  F  F16  1  0.28393593  0.50130311  0.10194868  1
  F  F17  1  0.21606407  0.49869689  0.60194868  1
  F  F18  1  0.71606407  0.00130311  0.89805132  1
  F  F19  1  0.78393593  0.99869689  0.39805132  1
  F  F20  1  0.63406831  0.25000000  0.06634820  1
  F  F21  1  0.86593169  0.75000000  0.56634820  1
  F  F22  1  0.36593169  0.75000000  0.93365180  1
  F  F23  1  0.13406831  0.25000000  0.43365180  1
  F  F24  1  0.61924520  0.11714555  0.91911834  1
  F  F25  1  0.88075480  0.88285445  0.41911834  1
  F  F26  1  0.38075480  0.61714555  0.08088166  1
  F  F27  1  0.11924520  0.38285445  0.58088166  1
  F  F28  1  0.38075480  0.88285445  0.08088166  1
  F  F29  1  0.11924520  0.11714555  0.58088166  1
  F  F30  1  0.61924520  0.38285445  0.91911834  1
  F  F31  1  0.88075480  0.61714555  0.41911834  1
  F  F32  1  0.00000000  0.00000000  0.00000000  1
  F  F33  1  0.50000000  0.00000000  0.50000000  1
  F  F34  1  0.00000000  0.50000000  -0.00000000  1
  F  F35  1  0.50000000  0.50000000  0.50000000  1
  F  F36  1  0.31412257  0.25000000  0.95717742  1
  F  F37  1  0.18587743  0.75000000  0.45717742  1
  F  F38  1  0.68587743  0.75000000  0.04282258  1
  F  F39  1  0.81412257  0.25000000  0.54282258  1
  Li  Li40  1  0.57906470  0.60480189  0.32282613  1
  Li  Li41  1  -0.07906470  -0.60480189  0.82282613  1
  Li  Li42  1  -0.57906470  1.10480189  -0.32282613  1
  Li  Li43  1  1.07906470  -0.10480189  0.17717387  1
  Li  Li44  1  -0.57906470  -0.60480189  -0.32282613  1
  Li  Li45  1  1.07906470  0.60480189  0.17717387  1
  Li  Li46  1  0.57906470  -0.10480189  0.32282613  1
  Li  Li47  1  -0.07906470  1.10480189  0.82282613  1
  Li  Li48  1  0.68037117  0.63006610  0.61710162  1
  Li  Li49  1  0.81962883  0.36993390  0.11710162  1
  Li  Li50  1  0.31962883  0.13006610  0.38289838  1
  Li  Li51  1  0.18037117  0.86993390  0.88289838  1
  Li  Li52  1  0.31962883  0.36993390  0.38289838  1
  Li  Li53  1  0.18037117  0.63006610  0.88289838  1
  Li  Li54  1  0.68037117  0.86993390  0.61710162  1
  Li  Li55  1  0.81962883  0.13006610  0.11710162  1
  Li  Li56  1  0.04327770  0.45462339  0.92500042  1
  Li  Li57  1  0.45672230  0.54537661  0.42500042  1
  Li  Li58  1  0.95672230  0.95462339  0.07499958  1
  Li  Li59  1  0.54327770  0.04537661  0.57499958  1
  Li  Li60  1  0.95672230  0.54537661  0.07499958  1
  Li  Li61  1  0.54327770  0.45462339  0.57499958  1
  Li  Li62  1  0.04327770  0.04537661  0.92500042  1
  Li  Li63  1  0.45672230  0.95462339  0.42500042  1
  Li  Li64  1  0.00000000  0.00000000  0.50000000  1
  Li  Li65  1  0.50000000  0.00000000  0.00000000  1
  Li  Li66  1  0.00000000  0.50000000  0.50000000  1
  Li  Li67  1  0.50000000  0.50000000  -0.00000000  1
  Li  Li68  1  0.45456969  0.64867878  0.68737915  1
  Li  Li69  1  0.04543031  0.35132122  0.18737915  1
  Li  Li70  1  0.54543031  0.14867878  0.31262085  1
  Li  Li71  1  0.95456969  0.85132122  0.81262085  1
  Li  Li72  1  0.54543031  0.35132122  0.31262085  1
  Li  Li73  1  0.95456969  0.64867878  0.81262085  1
  Li  Li74  1  0.45456969  0.85132122  0.68737915  1
  Li  Li75  1  0.04543031  0.14867878  0.18737915  1
  Li  Li76  1  0.16310513  0.25000000  0.30928758  1
  Li  Li77  1  0.33689487  0.75000000  0.80928758  1
  Li  Li78  1  0.83689487  0.75000000  0.69071242  1
  Li  Li79  1  0.66310513  0.25000000  0.19071242  1
