# generated using pymatgen
data_Li4TeF2
_symmetry_space_group_name_H-M   'P 1'
_cell_length_a   13.84549491
_cell_length_b   13.84549491
_cell_length_c   19.75034715
_cell_angle_alpha   90.00000000
_cell_angle_beta   90.00000000
_cell_angle_gamma   120.00000000
_symmetry_Int_Tables_number   1
_chemical_formula_structural   Li4TeF2
_chemical_formula_sum   'Li96 Te24 F48'
_cell_volume   3278.85592403
_cell_formula_units_Z   24
loop_
 _symmetry_equiv_pos_site_id
 _symmetry_equiv_pos_as_xyz
  1  'x, y, z'
loop_
 _atom_site_type_symbol
 _atom_site_label
 _atom_site_symmetry_multiplicity
 _atom_site_fract_x
 _atom_site_fract_y
 _atom_site_fract_z
 _atom_site_occupancy
  F  F0  1  0.33333333  0.66666667  0.92717214  1
  F  F1  1  0.33333333  0.66666667  0.07282786  1
  F  F2  1  0.66666667  0.33333333  0.07282786  1
  F  F3  1  0.66666667  0.33333333  0.92717214  1
  F  F4  1  0.73431759  0.62442260  0.74091450  1
  F  F5  1  -0.62442260  0.10989499  0.74091450  1
  F  F6  1  -0.10989499  -0.73431759  0.74091450  1
  F  F7  1  0.73431759  0.62442260  -0.74091450  1
  F  F8  1  -0.62442260  0.10989499  -0.74091450  1
  F  F9  1  -0.10989499  -0.73431759  -0.74091450  1
  F  F10  1  0.62442260  0.73431759  -0.74091450  1
  F  F11  1  0.10989499  -0.62442260  -0.74091450  1
  F  F12  1  -0.73431759  -0.10989499  -0.74091450  1
  F  F13  1  0.62442260  0.73431759  0.74091450  1
  F  F14  1  0.10989499  -0.62442260  0.74091450  1
  F  F15  1  -0.73431759  -0.10989499  0.74091450  1
  F  F16  1  0.43041329  0.82272286  0.43704801  1
  F  F17  1  0.17727714  0.60769043  0.43704801  1
  F  F18  1  0.39230957  0.56958671  0.43704801  1
  F  F19  1  0.43041329  0.82272286  0.56295199  1
  F  F20  1  0.17727714  0.60769043  0.56295199  1
  F  F21  1  0.39230957  0.56958671  0.56295199  1
  F  F22  1  0.82272286  0.43041329  0.56295199  1
  F  F23  1  0.60769043  0.17727714  0.56295199  1
  F  F24  1  0.56958671  0.39230957  0.56295199  1
  F  F25  1  0.82272286  0.43041329  0.43704801  1
  F  F26  1  0.60769043  0.17727714  0.43704801  1
  F  F27  1  0.56958671  0.39230957  0.43704801  1
  F  F28  1  0.73633915  0.41561914  0.70708564  1
  F  F29  1  0.58438086  0.32072001  0.70708564  1
  F  F30  1  0.67927999  0.26366085  0.70708564  1
  F  F31  1  0.73633915  0.41561914  0.29291436  1
  F  F32  1  0.58438086  0.32072001  0.29291436  1
  F  F33  1  0.67927999  0.26366085  0.29291436  1
  F  F34  1  0.41561914  0.73633915  0.29291436  1
  F  F35  1  0.32072001  0.58438086  0.29291436  1
  F  F36  1  0.26366085  0.67927999  0.29291436  1
  F  F37  1  0.41561914  0.73633915  0.70708564  1
  F  F38  1  0.32072001  0.58438086  0.70708564  1
  F  F39  1  0.26366085  0.67927999  0.70708564  1
  F  F40  1  0.14927315  -0.00000000  0.78265018  1
  F  F41  1  0.00000000  0.14927315  0.78265018  1
  F  F42  1  0.85072685  0.85072685  0.78265018  1
  F  F43  1  0.14927315  -0.00000000  0.21734982  1
  F  F44  1  0.00000000  0.14927315  0.21734982  1
  F  F45  1  0.85072685  0.85072685  0.21734982  1
  F  F46  1  0.33333333  0.66666667  -0.00000000  1
  F  F47  1  0.66666667  0.33333333  0.00000000  1
  Li  Li48  1  0.57409286  0.25081144  0.34412781  1
  Li  Li49  1  0.74918856  0.32328142  0.34412781  1
  Li  Li50  1  0.67671858  0.42590714  0.34412781  1
  Li  Li51  1  0.57409286  0.25081144  0.65587219  1
  Li  Li52  1  0.74918856  0.32328142  0.65587219  1
  Li  Li53  1  0.67671858  0.42590714  0.65587219  1
  Li  Li54  1  0.25081144  0.57409286  0.65587219  1
  Li  Li55  1  0.32328142  0.74918856  0.65587219  1
  Li  Li56  1  0.42590714  0.67671858  0.65587219  1
  Li  Li57  1  0.25081144  0.57409286  0.34412781  1
  Li  Li58  1  0.32328142  0.74918856  0.34412781  1
  Li  Li59  1  0.42590714  0.67671858  0.34412781  1
  Li  Li60  1  0.80501333  0.26960379  0.00000000  1
  Li  Li61  1  0.73039621  0.53540954  0.00000000  1
  Li  Li62  1  0.46459046  0.19498667  0.00000000  1
  Li  Li63  1  0.26960379  0.80501333  0.00000000  1
  Li  Li64  1  0.53540954  0.73039621  0.00000000  1
  Li  Li65  1  0.19498667  0.46459046  0.00000000  1
  Li  Li66  1  0.13239945  0.93329238  0.17831698  1
  Li  Li67  1  0.06670762  0.19910707  0.17831698  1
  Li  Li68  1  0.80089293  0.86760055  0.17831698  1
  Li  Li69  1  0.13239945  0.93329238  0.82168302  1
  Li  Li70  1  0.06670762  0.19910707  0.82168302  1
  Li  Li71  1  0.80089293  0.86760055  0.82168302  1
  Li  Li72  1  0.93329238  0.13239945  0.82168302  1
  Li  Li73  1  0.19910707  0.06670762  0.82168302  1
  Li  Li74  1  0.86760055  0.80089293  0.82168302  1
  Li  Li75  1  0.93329238  0.13239945  0.17831698  1
  Li  Li76  1  0.19910707  0.06670762  0.17831698  1
  Li  Li77  1  0.86760055  0.80089293  0.17831698  1
  Li  Li78  1  0.18826214  -0.00000000  0.00000000  1
  Li  Li79  1  0.00000000  0.18826214  0.00000000  1
  Li  Li80  1  0.81173786  0.81173786  0.00000000  1
  Li  Li81  1  0.37350083  0.08327249  0.10741363  1
  Li  Li82  1  0.91672751  0.29022834  0.10741363  1
  Li  Li83  1  0.70977166  0.62649917  0.10741363  1
  Li  Li84  1  0.37350083  0.08327249  0.89258637  1
  Li  Li85  1  0.91672751  0.29022834  0.89258637  1
  Li  Li86  1  0.70977166  0.62649917  0.89258637  1
  Li  Li87  1  0.08327249  0.37350083  0.89258637  1
  Li  Li88  1  0.29022834  0.91672751  0.89258637  1
  Li  Li89  1  0.62649917  0.70977166  0.89258637  1
  Li  Li90  1  0.08327249  0.37350083  0.10741363  1
  Li  Li91  1  0.29022834  0.91672751  0.10741363  1
  Li  Li92  1  0.62649917  0.70977166  0.10741363  1
  Li  Li93  1  0.27025700  0.07916089  0.50000000  1
  Li  Li94  1  0.92083911  0.19109611  0.50000000  1
  Li  Li95  1  0.80890389  0.72974300  0.50000000  1
  Li  Li96  1  0.07916089  0.27025700  0.50000000  1
  Li  Li97  1  0.19109611  0.92083911  0.50000000  1
  Li  Li98  1  0.72974300  0.80890389  0.50000000  1
  Li  Li99  1  0.75010568  0.11450619  0.37896638  1
  Li  Li100  1  0.88549381  0.63559949  0.37896638  1
  Li  Li101  1  0.36440051  0.24989432  0.37896638  1
  Li  Li102  1  0.75010568  0.11450619  0.62103362  1
  Li  Li103  1  0.88549381  0.63559949  0.62103362  1
  Li  Li104  1  0.36440051  0.24989432  0.62103362  1
  Li  Li105  1  0.11450619  0.75010568  0.62103362  1
  Li  Li106  1  0.63559949  0.88549381  0.62103362  1
  Li  Li107  1  0.24989432  0.36440051  0.62103362  1
  Li  Li108  1  0.11450619  0.75010568  0.37896638  1
  Li  Li109  1  0.63559949  0.88549381  0.37896638  1
  Li  Li110  1  0.24989432  0.36440051  0.37896638  1
  Li  Li111  1  0.77159287  -0.00000000  0.54681703  1
  Li  Li112  1  0.00000000  0.77159287  0.54681703  1
  Li  Li113  1  0.22840713  0.22840713  0.54681703  1
  Li  Li114  1  0.77159287  -0.00000000  0.45318297  1
  Li  Li115  1  0.00000000  0.77159287  0.45318297  1
  Li  Li116  1  0.22840713  0.22840713  0.45318297  1
  Li  Li117  1  0.00000000  0.00000000  0.73116829  1
  Li  Li118  1  0.00000000  0.00000000  0.26883171  1
  Li  Li119  1  0.59663652  0.92493474  0.14330600  1
  Li  Li120  1  0.07506526  0.67170178  0.14330600  1
  Li  Li121  1  0.32829822  0.40336348  0.14330600  1
  Li  Li122  1  0.59663652  0.92493474  0.85669400  1
  Li  Li123  1  0.07506526  0.67170178  0.85669400  1
  Li  Li124  1  0.32829822  0.40336348  0.85669400  1
  Li  Li125  1  0.92493474  0.59663652  0.85669400  1
  Li  Li126  1  0.67170178  0.07506526  0.85669400  1
  Li  Li127  1  0.40336348  0.32829822  0.85669400  1
  Li  Li128  1  0.92493474  0.59663652  0.14330600  1
  Li  Li129  1  0.67170178  0.07506526  0.14330600  1
  Li  Li130  1  0.40336348  0.32829822  0.14330600  1
  Li  Li131  1  0.48138095  0.79830604  0.44566372  1
  Li  Li132  1  0.20169396  0.68307490  0.44566372  1
  Li  Li133  1  0.31692510  0.51861905  0.44566372  1
  Li  Li134  1  0.48138095  0.79830604  0.55433628  1
  Li  Li135  1  0.20169396  0.68307490  0.55433628  1
  Li  Li136  1  0.31692510  0.51861905  0.55433628  1
  Li  Li137  1  0.79830604  0.48138095  0.55433628  1
  Li  Li138  1  0.68307490  0.20169396  0.55433628  1
  Li  Li139  1  0.51861905  0.31692510  0.55433628  1
  Li  Li140  1  0.79830604  0.48138095  0.44566372  1
  Li  Li141  1  0.68307490  0.20169396  0.44566372  1
  Li  Li142  1  0.51861905  0.31692510  0.44566372  1
  Li  Li143  1  0.00000000  0.00000000  0.50000000  1
  Te  Te144  1  0.52256718  0.06297021  0.72852958  1
  Te  Te145  1  0.93702979  0.45959696  0.72852958  1
  Te  Te146  1  0.54040304  0.47743282  0.72852958  1
  Te  Te147  1  0.52256718  0.06297021  0.27147042  1
  Te  Te148  1  0.93702979  0.45959696  0.27147042  1
  Te  Te149  1  0.54040304  0.47743282  0.27147042  1
  Te  Te150  1  0.06297021  0.52256718  0.27147042  1
  Te  Te151  1  0.45959696  0.93702979  0.27147042  1
  Te  Te152  1  0.47743282  0.54040304  0.27147042  1
  Te  Te153  1  0.06297021  0.52256718  0.72852958  1
  Te  Te154  1  0.45959696  0.93702979  0.72852958  1
  Te  Te155  1  0.47743282  0.54040304  0.72852958  1
  Te  Te156  1  0.84538063  -0.00000000  0.50000000  1
  Te  Te157  1  0.00000000  0.84538063  0.50000000  1
  Te  Te158  1  0.15461937  0.15461937  0.50000000  1
  Te  Te159  1  0.47500346  -0.00000000  0.50000000  1
  Te  Te160  1  0.00000000  0.47500346  0.50000000  1
  Te  Te161  1  0.52499654  0.52499654  0.50000000  1
  Te  Te162  1  0.33333333  0.66666667  0.50000000  1
  Te  Te163  1  0.66666667  0.33333333  0.50000000  1
  Te  Te164  1  0.58463867  -0.00000000  0.00000000  1
  Te  Te165  1  0.00000000  0.58463867  -0.00000000  1
  Te  Te166  1  0.41536133  0.41536133  0.00000000  1
  Te  Te167  1  0.00000000  0.00000000  0.00000000  1
