# generated using pymatgen
data_Li2Si4Te3F12
_symmetry_space_group_name_H-M   'P 1'
_cell_length_a   5.69015683
_cell_length_b   9.64961671
_cell_length_c   11.13068525
_cell_angle_alpha   90.00000000
_cell_angle_beta   90.00000000
_cell_angle_gamma   90.00000000
_symmetry_Int_Tables_number   1
_chemical_formula_structural   Li2Si4Te3F12
_chemical_formula_sum   'Li8 Si16 Te12 F48'
_cell_volume   611.16180104
_cell_formula_units_Z   4
loop_
 _symmetry_equiv_pos_site_id
 _symmetry_equiv_pos_as_xyz
  1  'x, y, z'
loop_
 _atom_site_type_symbol
 _atom_site_label
 _atom_site_symmetry_multiplicity
 _atom_site_fract_x
 _atom_site_fract_y
 _atom_site_fract_z
 _atom_site_occupancy
  F  F0  1  0.52652262  0.93342546  0.21811714  1
  F  F1  1  0.47347738  0.06657454  0.21811714  1
  F  F2  1  0.97347738  0.43342546  0.28188286  1
  F  F3  1  0.02652262  0.56657454  0.28188286  1
  F  F4  1  0.47347738  0.06657454  0.78188286  1
  F  F5  1  0.52652262  0.93342546  0.78188286  1
  F  F6  1  0.02652262  0.56657454  0.71811714  1
  F  F7  1  0.97347738  0.43342546  0.71811714  1
  F  F8  1  0.81232999  0.03737488  0.22092306  1
  F  F9  1  0.18767001  0.96262512  0.22092306  1
  F  F10  1  0.68767001  0.53737488  0.27907694  1
  F  F11  1  0.31232999  0.46262512  0.27907694  1
  F  F12  1  0.18767001  0.96262512  0.77907694  1
  F  F13  1  0.81232999  0.03737488  0.77907694  1
  F  F14  1  0.31232999  0.46262512  0.72092306  1
  F  F15  1  0.68767001  0.53737488  0.72092306  1
  F  F16  1  0.00000000  0.00000000  0.17704905  1
  F  F17  1  0.50000000  0.50000000  0.32295095  1
  F  F18  1  0.00000000  0.00000000  0.82295095  1
  F  F19  1  0.50000000  0.50000000  0.67704905  1
  F  F20  1  0.00000000  0.50000000  0.00000000  1
  F  F21  1  0.50000000  0.00000000  0.50000000  1
  F  F22  1  0.92774451  0.43886279  0.76913759  1
  F  F23  1  0.07225549  0.56113721  0.76913759  1
  F  F24  1  0.57225549  0.93886279  0.73086241  1
  F  F25  1  0.42774451  0.06113721  0.73086241  1
  F  F26  1  0.07225549  0.56113721  0.23086241  1
  F  F27  1  0.92774451  0.43886279  0.23086241  1
  F  F28  1  0.42774451  0.06113721  0.26913759  1
  F  F29  1  0.57225549  0.93886279  0.26913759  1
  F  F30  1  0.84728329  0.93196484  0.29073108  1
  F  F31  1  0.15271671  0.06803516  0.29073108  1
  F  F32  1  0.65271671  0.43196484  0.20926892  1
  F  F33  1  0.34728329  0.56803516  0.20926892  1
  F  F34  1  0.15271671  0.06803516  0.70926892  1
  F  F35  1  0.84728329  0.93196484  0.70926892  1
  F  F36  1  0.34728329  0.56803516  0.79073108  1
  F  F37  1  0.65271671  0.43196484  0.79073108  1
  F  F38  1  0.62729475  0.63514934  0.00000000  1
  F  F39  1  0.37270525  0.36485066  0.00000000  1
  F  F40  1  0.87270525  0.13514934  0.50000000  1
  F  F41  1  0.12729475  0.86485066  0.50000000  1
  F  F42  1  0.00000000  0.00000000  0.26654665  1
  F  F43  1  0.50000000  0.50000000  0.23345335  1
  F  F44  1  0.00000000  0.00000000  0.73345335  1
  F  F45  1  0.50000000  0.50000000  0.76654665  1
  F  F46  1  0.00000000  0.00000000  0.00000000  1
  F  F47  1  0.50000000  0.50000000  0.50000000  1
  Li  Li48  1  0.24238400  0.87719790  0.36016538  1
  Li  Li49  1  0.75761600  0.12280210  0.36016538  1
  Li  Li50  1  0.25761600  0.37719790  0.13983462  1
  Li  Li51  1  0.74238400  0.62280210  0.13983462  1
  Li  Li52  1  0.75761600  0.12280210  0.63983462  1
  Li  Li53  1  0.24238400  0.87719790  0.63983462  1
  Li  Li54  1  0.74238400  0.62280210  0.86016538  1
  Li  Li55  1  0.25761600  0.37719790  0.86016538  1
  Si  Si56  1  0.00000000  0.50000000  0.50000000  1
  Si  Si57  1  0.50000000  0.00000000  0.00000000  1
  Si  Si58  1  0.06051140  0.14584265  0.69381125  1
  Si  Si59  1  -0.06051140  -0.14584265  0.69381125  1
  Si  Si60  1  0.43948860  0.64584265  -0.19381125  1
  Si  Si61  1  0.56051140  0.35415735  -0.19381125  1
  Si  Si62  1  -0.06051140  -0.14584265  -0.69381125  1
  Si  Si63  1  0.06051140  0.14584265  -0.69381125  1
  Si  Si64  1  0.56051140  0.35415735  1.19381125  1
  Si  Si65  1  0.43948860  0.64584265  1.19381125  1
  Si  Si66  1  0.00000000  0.00000000  0.50000000  1
  Si  Si67  1  0.50000000  0.50000000  0.00000000  1
  Si  Si68  1  0.99301104  0.10692761  0.00000000  1
  Si  Si69  1  0.00698896  0.89307239  0.00000000  1
  Si  Si70  1  0.50698896  0.60692761  0.50000000  1
  Si  Si71  1  0.49301104  0.39307239  0.50000000  1
  Te  Te72  1  0.72773483  0.01276977  0.87761271  1
  Te  Te73  1  0.27226517  0.98723023  0.87761271  1
  Te  Te74  1  0.77226517  0.51276977  0.62238729  1
  Te  Te75  1  0.22773483  0.48723023  0.62238729  1
  Te  Te76  1  0.27226517  0.98723023  0.12238729  1
  Te  Te77  1  0.72773483  0.01276977  0.12238729  1
  Te  Te78  1  0.22773483  0.48723023  0.37761271  1
  Te  Te79  1  0.77226517  0.51276977  0.37761271  1
  Te  Te80  1  0.00000000  0.50000000  0.89080767  1
  Te  Te81  1  0.50000000  0.00000000  0.60919233  1
  Te  Te82  1  0.00000000  0.50000000  0.10919233  1
  Te  Te83  1  0.50000000  0.00000000  0.39080767  1
