# generated using pymatgen
data_LiY2Sb2P2Se
_symmetry_space_group_name_H-M   'P 1'
_cell_length_a   4.27823686
_cell_length_b   4.38778919
_cell_length_c   5.88370384
_cell_angle_alpha   95.16970051
_cell_angle_beta   97.85400843
_cell_angle_gamma   105.42543682
_symmetry_Int_Tables_number   1
_chemical_formula_structural   LiY2Sb2P2Se
_chemical_formula_sum   'Li1 Y2 Sb2 P2 Se1'
_cell_volume   104.54268041
_cell_formula_units_Z   1
loop_
 _symmetry_equiv_pos_site_id
 _symmetry_equiv_pos_as_xyz
  1  'x, y, z'
loop_
 _atom_site_type_symbol
 _atom_site_label
 _atom_site_symmetry_multiplicity
 _atom_site_fract_x
 _atom_site_fract_y
 _atom_site_fract_z
 _atom_site_occupancy
  Y  Y0  1  0.00000000  0.00000000  0.00000000  1
  Y  Y1  1  0.50000000  0.50000000  0.50000000  1
  P  P2  1  0.25000000  0.25000000  0.25000000  1
  P  P3  1  0.75000000  0.25000000  0.00000000  1
  Se  Se4  1  0.25000000  0.75000000  0.50000000  1
  Li  Li5  1  0.97327784  0.85367597  0.63578997  1
  Sb  Sb6  1  0.21023548  0.89774122  0.45084576  1
  Sb  Sb7  1  0.31441126  0.01628253  0.36701125  1
