# generated using pymatgen
data_LiF
_symmetry_space_group_name_H-M   'P 1'
_cell_length_a   10.93549955
_cell_length_b   17.13711908
_cell_length_c   14.21668171
_cell_angle_alpha   90.00000000
_cell_angle_beta   90.00000000
_cell_angle_gamma   90.00000000
_symmetry_Int_Tables_number   1
_chemical_formula_structural   LiF
_chemical_formula_sum   'Li76 F76'
_cell_volume   2664.24820463
_cell_formula_units_Z   76
loop_
 _symmetry_equiv_pos_site_id
 _symmetry_equiv_pos_as_xyz
  1  'x, y, z'
loop_
 _atom_site_type_symbol
 _atom_site_label
 _atom_site_symmetry_multiplicity
 _atom_site_fract_x
 _atom_site_fract_y
 _atom_site_fract_z
 _atom_site_occupancy
  F  F0  1  0.06618537  0.88678309  0.02123770  1
  F  F1  1  0.93381463  0.11321691  0.02123770  1
  F  F2  1  0.43381463  0.38678309  0.97876230  1
  F  F3  1  0.56618537  0.61321691  0.97876230  1
  F  F4  1  0.93381463  0.11321691  0.97876230  1
  F  F5  1  0.06618537  0.88678309  0.97876230  1
  F  F6  1  0.56618537  0.61321691  0.02123770  1
  F  F7  1  0.43381463  0.38678309  0.02123770  1
  F  F8  1  0.31861342  0.89430427  0.25721358  1
  F  F9  1  0.68138658  0.10569573  0.25721358  1
  F  F10  1  0.18138658  0.39430427  0.74278642  1
  F  F11  1  0.81861342  0.60569573  0.74278642  1
  F  F12  1  0.68138658  0.10569573  0.74278642  1
  F  F13  1  0.31861342  0.89430427  0.74278642  1
  F  F14  1  0.81861342  0.60569573  0.25721358  1
  F  F15  1  0.18138658  0.39430427  0.25721358  1
  F  F16  1  0.00000000  0.50000000  0.27746899  1
  F  F17  1  0.50000000  0.00000000  0.72253101  1
  F  F18  1  0.00000000  0.50000000  0.72253101  1
  F  F19  1  0.50000000  0.00000000  0.27746899  1
  F  F20  1  0.17984525  0.40943142  0.20493143  1
  F  F21  1  0.82015475  0.59056858  0.20493143  1
  F  F22  1  0.32015475  0.90943142  0.79506857  1
  F  F23  1  0.67984525  0.09056858  0.79506857  1
  F  F24  1  0.82015475  0.59056858  0.79506857  1
  F  F25  1  0.17984525  0.40943142  0.79506857  1
  F  F26  1  0.67984525  0.09056858  0.20493143  1
  F  F27  1  0.32015475  0.90943142  0.20493143  1
  F  F28  1  0.56433369  0.20991777  0.38073986  1
  F  F29  1  0.43566631  0.79008223  0.38073986  1
  F  F30  1  0.93566631  0.70991777  0.61926014  1
  F  F31  1  0.06433369  0.29008223  0.61926014  1
  F  F32  1  0.43566631  0.79008223  0.61926014  1
  F  F33  1  0.56433369  0.20991777  0.61926014  1
  F  F34  1  0.06433369  0.29008223  0.38073986  1
  F  F35  1  0.93566631  0.70991777  0.38073986  1
  F  F36  1  0.34509569  0.21466809  0.45637791  1
  F  F37  1  0.65490431  0.78533191  0.45637791  1
  F  F38  1  0.15490431  0.71466809  0.54362209  1
  F  F39  1  0.84509569  0.28533191  0.54362209  1
  F  F40  1  0.65490431  0.78533191  0.54362209  1
  F  F41  1  0.34509569  0.21466809  0.54362209  1
  F  F42  1  0.84509569  0.28533191  0.45637791  1
  F  F43  1  0.15490431  0.71466809  0.45637791  1
  F  F44  1  0.52366715  0.76640160  0.35529194  1
  F  F45  1  0.47633285  0.23359840  0.35529194  1
  F  F46  1  0.97633285  0.26640160  0.64470806  1
  F  F47  1  0.02366715  0.73359840  0.64470806  1
  F  F48  1  0.47633285  0.23359840  0.64470806  1
  F  F49  1  0.52366715  0.76640160  0.64470806  1
  F  F50  1  0.02366715  0.73359840  0.35529194  1
  F  F51  1  0.97633285  0.26640160  0.35529194  1
  F  F52  1  0.77751754  0.65605583  0.58948435  1
  F  F53  1  0.22248246  0.34394417  0.58948435  1
  F  F54  1  0.72248246  0.15605583  0.41051565  1
  F  F55  1  0.27751754  0.84394417  0.41051565  1
  F  F56  1  0.22248246  0.34394417  0.41051565  1
  F  F57  1  0.77751754  0.65605583  0.41051565  1
  F  F58  1  0.27751754  0.84394417  0.58948435  1
  F  F59  1  0.72248246  0.15605583  0.58948435  1
  F  F60  1  0.38332206  0.83298881  0.93011677  1
  F  F61  1  0.61667794  0.16701119  0.93011677  1
  F  F62  1  0.11667794  0.33298881  0.06988323  1
  F  F63  1  0.88332206  0.66701119  0.06988323  1
  F  F64  1  0.61667794  0.16701119  0.06988323  1
  F  F65  1  0.38332206  0.83298881  0.06988323  1
  F  F66  1  0.88332206  0.66701119  0.93011677  1
  F  F67  1  0.11667794  0.33298881  0.93011677  1
  F  F68  1  0.66564304  0.78258275  0.72433639  1
  F  F69  1  0.33435696  0.21741725  0.72433639  1
  F  F70  1  0.83435696  0.28258275  0.27566361  1
  F  F71  1  0.16564304  0.71741725  0.27566361  1
  F  F72  1  0.33435696  0.21741725  0.27566361  1
  F  F73  1  0.66564304  0.78258275  0.27566361  1
  F  F74  1  0.16564304  0.71741725  0.72433639  1
  F  F75  1  0.83435696  0.28258275  0.72433639  1
  Li  Li76  1  0.04647965  0.37207670  0.19545034  1
  Li  Li77  1  -0.04647965  -0.37207670  0.19545034  1
  Li  Li78  1  0.45352035  0.87207670  -0.19545034  1
  Li  Li79  1  0.54647965  0.12792330  -0.19545034  1
  Li  Li80  1  -0.04647965  -0.37207670  -0.19545034  1
  Li  Li81  1  0.04647965  0.37207670  -0.19545034  1
  Li  Li82  1  0.54647965  0.12792330  0.19545034  1
  Li  Li83  1  0.45352035  0.87207670  0.19545034  1
  Li  Li84  1  0.00000000  0.50000000  0.50000000  1
  Li  Li85  1  0.50000000  0.00000000  0.50000000  1
  Li  Li86  1  0.71185920  0.11380580  0.50000000  1
  Li  Li87  1  0.28814080  0.88619420  0.50000000  1
  Li  Li88  1  0.78814080  0.61380580  0.50000000  1
  Li  Li89  1  0.21185920  0.38619420  0.50000000  1
  Li  Li90  1  0.00000000  0.00000000  0.50000000  1
  Li  Li91  1  0.50000000  0.50000000  0.50000000  1
  Li  Li92  1  0.79505068  0.67589671  0.32389551  1
  Li  Li93  1  0.20494932  0.32410329  0.32389551  1
  Li  Li94  1  0.70494932  0.17589671  0.67610449  1
  Li  Li95  1  0.29505068  0.82410329  0.67610449  1
  Li  Li96  1  0.20494932  0.32410329  0.67610449  1
  Li  Li97  1  0.79505068  0.67589671  0.67610449  1
  Li  Li98  1  0.29505068  0.82410329  0.32389551  1
  Li  Li99  1  0.70494932  0.17589671  0.32389551  1
  Li  Li100  1  0.12753239  0.50241832  0.61053178  1
  Li  Li101  1  0.87246761  0.49758168  0.61053178  1
  Li  Li102  1  0.37246761  0.00241832  0.38946822  1
  Li  Li103  1  0.62753239  0.99758168  0.38946822  1
  Li  Li104  1  0.87246761  0.49758168  0.38946822  1
  Li  Li105  1  0.12753239  0.50241832  0.38946822  1
  Li  Li106  1  0.62753239  0.99758168  0.61053178  1
  Li  Li107  1  0.37246761  0.00241832  0.61053178  1
  Li  Li108  1  0.78571491  0.52632252  0.06702843  1
  Li  Li109  1  0.21428509  0.47367748  0.06702843  1
  Li  Li110  1  0.71428509  0.02632252  0.93297157  1
  Li  Li111  1  0.28571491  0.97367748  0.93297157  1
  Li  Li112  1  0.21428509  0.47367748  0.93297157  1
  Li  Li113  1  0.78571491  0.52632252  0.93297157  1
  Li  Li114  1  0.28571491  0.97367748  0.06702843  1
  Li  Li115  1  0.71428509  0.02632252  0.06702843  1
  Li  Li116  1  0.51068430  0.46102965  0.10048231  1
  Li  Li117  1  0.48931570  0.53897035  0.10048231  1
  Li  Li118  1  0.98931570  0.96102965  0.89951769  1
  Li  Li119  1  0.01068430  0.03897035  0.89951769  1
  Li  Li120  1  0.48931570  0.53897035  0.89951769  1
  Li  Li121  1  0.51068430  0.46102965  0.89951769  1
  Li  Li122  1  0.01068430  0.03897035  0.10048231  1
  Li  Li123  1  0.98931570  0.96102965  0.10048231  1
  Li  Li124  1  0.84127247  0.18702720  0.92051216  1
  Li  Li125  1  0.15872753  0.81297280  0.92051216  1
  Li  Li126  1  0.65872753  0.68702720  0.07948784  1
  Li  Li127  1  0.34127247  0.31297280  0.07948784  1
  Li  Li128  1  0.15872753  0.81297280  0.07948784  1
  Li  Li129  1  0.84127247  0.18702720  0.07948784  1
  Li  Li130  1  0.34127247  0.31297280  0.92051216  1
  Li  Li131  1  0.65872753  0.68702720  0.92051216  1
  Li  Li132  1  0.74265725  0.49137112  0.13992824  1
  Li  Li133  1  0.25734275  0.50862888  0.13992824  1
  Li  Li134  1  0.75734275  0.99137112  0.86007176  1
  Li  Li135  1  0.24265725  0.00862888  0.86007176  1
  Li  Li136  1  0.25734275  0.50862888  0.86007176  1
  Li  Li137  1  0.74265725  0.49137112  0.86007176  1
  Li  Li138  1  0.24265725  0.00862888  0.13992824  1
  Li  Li139  1  0.75734275  0.99137112  0.13992824  1
  Li  Li140  1  0.00000000  0.50000000  -0.00000000  1
  Li  Li141  1  0.50000000  0.00000000  0.00000000  1
  Li  Li142  1  0.68917620  0.57079257  0.44797065  1
  Li  Li143  1  0.31082380  0.42920743  0.44797065  1
  Li  Li144  1  0.81082380  0.07079257  0.55202935  1
  Li  Li145  1  0.18917620  0.92920743  0.55202935  1
  Li  Li146  1  0.31082380  0.42920743  0.55202935  1
  Li  Li147  1  0.68917620  0.57079257  0.55202935  1
  Li  Li148  1  0.18917620  0.92920743  0.44797065  1
  Li  Li149  1  0.81082380  0.07079257  0.44797065  1
  Li  Li150  1  0.00000000  0.00000000  0.00000000  1
  Li  Li151  1  0.50000000  0.50000000  0.00000000  1
