# generated using pymatgen
data_LiF
_symmetry_space_group_name_H-M   'P 1'
_cell_length_a   9.49830103
_cell_length_b   8.17813487
_cell_length_c   7.62443645
_cell_angle_alpha   90.00000000
_cell_angle_beta   90.00000000
_cell_angle_gamma   90.00000000
_symmetry_Int_Tables_number   1
_chemical_formula_structural   LiF
_chemical_formula_sum   'Li24 F24'
_cell_volume   592.25392385
_cell_formula_units_Z   24
loop_
 _symmetry_equiv_pos_site_id
 _symmetry_equiv_pos_as_xyz
  1  'x, y, z'
loop_
 _atom_site_type_symbol
 _atom_site_label
 _atom_site_symmetry_multiplicity
 _atom_site_fract_x
 _atom_site_fract_y
 _atom_site_fract_z
 _atom_site_occupancy
  F  F0  1  0.67700591  0.94442994  0.78446466  1
  F  F1  1  0.82299409  0.05557006  0.28446466  1
  F  F2  1  0.32299409  0.44442994  0.21553534  1
  F  F3  1  0.17700591  0.55557006  0.71553534  1
  F  F4  1  0.32299409  0.05557006  0.21553534  1
  F  F5  1  0.17700591  0.94442994  0.71553534  1
  F  F6  1  0.67700591  0.55557006  0.78446466  1
  F  F7  1  0.82299409  0.44442994  0.28446466  1
  F  F8  1  0.99524504  0.25000000  0.56177733  1
  F  F9  1  0.50475496  0.75000000  0.06177733  1
  F  F10  1  0.00475496  0.75000000  0.43822267  1
  F  F11  1  0.49524504  0.25000000  0.93822267  1
  F  F12  1  0.45017962  0.25000000  0.03932949  1
  F  F13  1  0.04982038  0.75000000  0.53932949  1
  F  F14  1  0.54982038  0.75000000  0.96067051  1
  F  F15  1  0.95017962  0.25000000  0.46067051  1
  F  F16  1  0.00000000  0.00000000  0.00000000  1
  F  F17  1  0.50000000  0.00000000  0.50000000  1
  F  F18  1  0.00000000  0.50000000  0.00000000  1
  F  F19  1  0.50000000  0.50000000  0.50000000  1
  F  F20  1  0.75395719  0.25000000  0.12044985  1
  F  F21  1  0.74604281  0.75000000  0.62044985  1
  F  F22  1  0.24604281  0.75000000  0.87955015  1
  F  F23  1  0.25395719  0.25000000  0.37955015  1
  Li  Li24  1  0.64775407  0.25000000  0.69906306  1
  Li  Li25  1  0.85224593  0.75000000  0.19906306  1
  Li  Li26  1  0.35224593  0.75000000  0.30093694  1
  Li  Li27  1  0.14775407  0.25000000  0.80093694  1
  Li  Li28  1  0.24902841  0.25000000  0.91597737  1
  Li  Li29  1  0.25097159  0.75000000  0.41597737  1
  Li  Li30  1  0.75097159  0.75000000  0.08402263  1
  Li  Li31  1  0.74902841  0.25000000  0.58402263  1
  Li  Li32  1  0.27744980  0.25000000  0.17582763  1
  Li  Li33  1  0.22255020  0.75000000  0.67582763  1
  Li  Li34  1  0.72255020  0.75000000  0.82417237  1
  Li  Li35  1  0.77744980  0.25000000  0.32417237  1
  Li  Li36  1  0.59248985  0.99993749  0.41949514  1
  Li  Li37  1  -0.09248985  -0.99993749  0.91949514  1
  Li  Li38  1  -0.59248985  1.49993749  -0.41949514  1
  Li  Li39  1  1.09248985  -0.49993749  0.08050486  1
  Li  Li40  1  -0.59248985  -0.99993749  -0.41949514  1
  Li  Li41  1  1.09248985  0.99993749  0.08050486  1
  Li  Li42  1  0.59248985  -0.49993749  0.41949514  1
  Li  Li43  1  -0.09248985  1.49993749  0.91949514  1
  Li  Li44  1  0.00000000  0.00000000  0.50000000  1
  Li  Li45  1  0.50000000  0.00000000  0.00000000  1
  Li  Li46  1  0.00000000  0.50000000  0.50000000  1
  Li  Li47  1  0.50000000  0.50000000  0.00000000  1
