# generated using pymatgen
data_LiF
_symmetry_space_group_name_H-M   'P 1'
_cell_length_a   11.16308076
_cell_length_b   7.07509301
_cell_length_c   11.34834683
_cell_angle_alpha   90.00000000
_cell_angle_beta   90.00000000
_cell_angle_gamma   90.00000000
_symmetry_Int_Tables_number   1
_chemical_formula_structural   LiF
_chemical_formula_sum   'Li22 F22'
_cell_volume   896.29055662
_cell_formula_units_Z   22
loop_
 _symmetry_equiv_pos_site_id
 _symmetry_equiv_pos_as_xyz
  1  'x, y, z'
loop_
 _atom_site_type_symbol
 _atom_site_label
 _atom_site_symmetry_multiplicity
 _atom_site_fract_x
 _atom_site_fract_y
 _atom_site_fract_z
 _atom_site_occupancy
  F  F0  1  0.00000000  0.50000000  -0.00000000  1
  F  F1  1  0.50000000  -0.00000000  0.50000000  1
  F  F2  1  0.68016279  0.07020151  0.31143463  1
  F  F3  1  -0.68016279  -0.07020151  0.31143463  1
  F  F4  1  -0.18016279  0.57020151  0.18856537  1
  F  F5  1  1.18016279  0.42979849  0.18856537  1
  F  F6  1  -0.68016279  -0.07020151  -0.31143463  1
  F  F7  1  0.68016279  0.07020151  -0.31143463  1
  F  F8  1  1.18016279  0.42979849  0.81143463  1
  F  F9  1  -0.18016279  0.57020151  0.81143463  1
  F  F10  1  0.66414051  0.51479373  0.95509526  1
  F  F11  1  0.33585949  0.48520627  0.95509526  1
  F  F12  1  0.83585949  0.01479373  0.54490474  1
  F  F13  1  0.16414051  0.98520627  0.54490474  1
  F  F14  1  0.33585949  0.48520627  0.04490474  1
  F  F15  1  0.66414051  0.51479373  0.04490474  1
  F  F16  1  0.16414051  0.98520627  0.45509526  1
  F  F17  1  0.83585949  0.01479373  0.45509526  1
  F  F18  1  0.00000000  0.50000000  0.50000000  1
  F  F19  1  0.50000000  -0.00000000  0.00000000  1
  F  F20  1  0.00000000  0.00000000  0.50000000  1
  F  F21  1  0.50000000  0.50000000  0.00000000  1
  Li  Li22  1  0.62285522  0.96571809  0.29266088  1
  Li  Li23  1  0.37714478  0.03428191  0.29266088  1
  Li  Li24  1  0.87714478  0.46571809  0.20733912  1
  Li  Li25  1  0.12285522  0.53428191  0.20733912  1
  Li  Li26  1  0.37714478  0.03428191  0.70733912  1
  Li  Li27  1  0.62285522  0.96571809  0.70733912  1
  Li  Li28  1  0.12285522  0.53428191  0.79266088  1
  Li  Li29  1  0.87714478  0.46571809  0.79266088  1
  Li  Li30  1  0.78039969  0.07758792  0.73861415  1
  Li  Li31  1  0.21960031  0.92241208  0.73861415  1
  Li  Li32  1  0.71960031  0.57758792  0.76138585  1
  Li  Li33  1  0.28039969  0.42241208  0.76138585  1
  Li  Li34  1  0.21960031  0.92241208  0.26138585  1
  Li  Li35  1  0.78039969  0.07758792  0.26138585  1
  Li  Li36  1  0.28039969  0.42241208  0.23861415  1
  Li  Li37  1  0.71960031  0.57758792  0.23861415  1
  Li  Li38  1  0.44706666  0.23223594  0.00000000  1
  Li  Li39  1  0.55293334  0.76776406  0.00000000  1
  Li  Li40  1  0.05293334  0.73223594  0.50000000  1
  Li  Li41  1  0.94706666  0.26776406  0.50000000  1
  Li  Li42  1  0.00000000  0.00000000  0.00000000  1
  Li  Li43  1  0.50000000  0.50000000  0.50000000  1
