# generated using pymatgen
data_Li2Y2As4P2Se
_symmetry_space_group_name_H-M   'P 1'
_cell_length_a   5.38097723
_cell_length_b   5.46470221
_cell_length_c   6.92008157
_cell_angle_alpha   93.50908905
_cell_angle_beta   97.92479870
_cell_angle_gamma   104.43599910
_symmetry_Int_Tables_number   1
_chemical_formula_structural   Li2Y2As4P2Se
_chemical_formula_sum   'Li2 Y2 As4 P2 Se1'
_cell_volume   194.20983750
_cell_formula_units_Z   1
loop_
 _symmetry_equiv_pos_site_id
 _symmetry_equiv_pos_as_xyz
  1  'x, y, z'
loop_
 _atom_site_type_symbol
 _atom_site_label
 _atom_site_symmetry_multiplicity
 _atom_site_fract_x
 _atom_site_fract_y
 _atom_site_fract_z
 _atom_site_occupancy
  Y  Y0  1  0.12500000  0.00000000  0.25000000  1
  Y  Y1  1  0.00000000  0.00000000  0.00000000  1
  P  P2  1  0.37500000  0.00000000  0.25000000  1
  P  P3  1  0.25000000  0.25000000  0.25000000  1
  Se  Se4  1  0.00000000  0.25000000  0.12500000  1
  As  As5  1  0.49874606  0.83472625  0.89709245  1
  As  As6  1  0.04540086  0.12546313  0.22706627  1
  As  As7  1  0.46732724  0.41734991  0.67152291  1
  As  As8  1  0.57312208  0.50476545  0.47980437  1
  Li  Li9  1  0.37887548  0.22028743  0.05022621  1
  Li  Li10  1  0.13295371  0.85574819  0.08549680  1
