# generated using pymatgen
data_LiF
_symmetry_space_group_name_H-M   'P 1'
_cell_length_a   7.12297244
_cell_length_b   6.87913737
_cell_length_c   9.09165976
_cell_angle_alpha   90.00000000
_cell_angle_beta   90.00000000
_cell_angle_gamma   90.00000000
_symmetry_Int_Tables_number   1
_chemical_formula_structural   LiF
_chemical_formula_sum   'Li24 F24'
_cell_volume   445.49047242
_cell_formula_units_Z   24
loop_
 _symmetry_equiv_pos_site_id
 _symmetry_equiv_pos_as_xyz
  1  'x, y, z'
loop_
 _atom_site_type_symbol
 _atom_site_label
 _atom_site_symmetry_multiplicity
 _atom_site_fract_x
 _atom_site_fract_y
 _atom_site_fract_z
 _atom_site_occupancy
  F  F0  1  0.32098559  0.80301706  0.25998438  1
  F  F1  1  0.17901441  0.19698294  0.75998438  1
  F  F2  1  0.67901441  0.30301706  0.74001562  1
  F  F3  1  0.82098559  0.69698294  0.24001562  1
  F  F4  1  0.67901441  0.19698294  0.74001562  1
  F  F5  1  0.82098559  0.80301706  0.24001562  1
  F  F6  1  0.32098559  0.69698294  0.25998438  1
  F  F7  1  0.17901441  0.30301706  0.75998438  1
  F  F8  1  0.16459927  0.25000000  0.28324364  1
  F  F9  1  0.33540073  0.75000000  0.78324364  1
  F  F10  1  0.83540073  0.75000000  0.71675636  1
  F  F11  1  0.66459927  0.25000000  0.21675636  1
  F  F12  1  0.25030851  0.25000000  0.97167477  1
  F  F13  1  0.24969149  0.75000000  0.47167477  1
  F  F14  1  0.74969149  0.75000000  0.02832523  1
  F  F15  1  0.75030851  0.25000000  0.52832523  1
  F  F16  1  0.46424297  0.54526243  0.87902917  1
  F  F17  1  0.03575703  0.45473757  0.37902917  1
  F  F18  1  0.53575703  0.04526243  0.12097083  1
  F  F19  1  0.96424297  0.95473757  0.62097083  1
  F  F20  1  0.53575703  0.45473757  0.12097083  1
  F  F21  1  0.96424297  0.54526243  0.62097083  1
  F  F22  1  0.46424297  0.95473757  0.87902917  1
  F  F23  1  0.03575703  0.04526243  0.37902917  1
  Li  Li24  1  0.13803871  0.00844772  0.78406477  1
  Li  Li25  1  0.36196129  -0.00844772  1.28406477  1
  Li  Li26  1  -0.13803871  0.50844772  -0.78406477  1
  Li  Li27  1  0.63803871  0.49155228  -0.28406477  1
  Li  Li28  1  -0.13803871  -0.00844772  -0.78406477  1
  Li  Li29  1  0.63803871  0.00844772  -0.28406477  1
  Li  Li30  1  0.13803871  0.49155228  0.78406477  1
  Li  Li31  1  0.36196129  0.50844772  1.28406477  1
  Li  Li32  1  0.00000000  0.00000000  0.00000000  1
  Li  Li33  1  0.50000000  0.00000000  0.50000000  1
  Li  Li34  1  0.00000000  0.50000000  0.00000000  1
  Li  Li35  1  0.50000000  0.50000000  0.50000000  1
  Li  Li36  1  0.90544163  0.25000000  0.44346972  1
  Li  Li37  1  0.59455837  0.75000000  0.94346972  1
  Li  Li38  1  0.09455837  0.75000000  0.55653028  1
  Li  Li39  1  0.40544163  0.25000000  0.05653028  1
  Li  Li40  1  0.74899989  0.49986797  0.10496073  1
  Li  Li41  1  0.75100011  0.50013203  0.60496073  1
  Li  Li42  1  0.25100011  0.99986797  0.89503927  1
  Li  Li43  1  0.24899989  0.00013203  0.39503927  1
  Li  Li44  1  0.25100011  0.50013203  0.89503927  1
  Li  Li45  1  0.24899989  0.49986797  0.39503927  1
  Li  Li46  1  0.74899989  0.00013203  0.10496073  1
  Li  Li47  1  0.75100011  0.99986797  0.60496073  1
