# generated using pymatgen
data_LiF
_symmetry_space_group_name_H-M   'P 1'
_cell_length_a   5.74151227
_cell_length_b   8.66932816
_cell_length_c   8.48422638
_cell_angle_alpha   90.00000000
_cell_angle_beta   90.00000000
_cell_angle_gamma   90.00000000
_symmetry_Int_Tables_number   1
_chemical_formula_structural   LiF
_chemical_formula_sum   'Li16 F16'
_cell_volume   422.30282613
_cell_formula_units_Z   16
loop_
 _symmetry_equiv_pos_site_id
 _symmetry_equiv_pos_as_xyz
  1  'x, y, z'
loop_
 _atom_site_type_symbol
 _atom_site_label
 _atom_site_symmetry_multiplicity
 _atom_site_fract_x
 _atom_site_fract_y
 _atom_site_fract_z
 _atom_site_occupancy
  F  F0  1  0.39566405  0.54504737  0.12604988  1
  F  F1  1  -0.39566405  -0.54504737  0.12604988  1
  F  F2  1  0.10433595  1.04504737  -0.12604988  1
  F  F3  1  0.89566405  -0.04504737  -0.12604988  1
  F  F4  1  -0.39566405  -0.54504737  -0.12604988  1
  F  F5  1  0.39566405  0.54504737  -0.12604988  1
  F  F6  1  0.89566405  -0.04504737  0.12604988  1
  F  F7  1  0.10433595  1.04504737  0.12604988  1
  F  F8  1  0.06158708  0.17594992  0.41984739  1
  F  F9  1  0.93841292  0.82405008  0.41984739  1
  F  F10  1  0.43841292  0.67594992  0.58015261  1
  F  F11  1  0.56158708  0.32405008  0.58015261  1
  F  F12  1  0.93841292  0.82405008  0.58015261  1
  F  F13  1  0.06158708  0.17594992  0.58015261  1
  F  F14  1  0.56158708  0.32405008  0.41984739  1
  F  F15  1  0.43841292  0.67594992  0.41984739  1
  Li  Li16  1  0.00000000  0.50000000  0.13953075  1
  Li  Li17  1  0.50000000  -0.00000000  0.86046925  1
  Li  Li18  1  0.00000000  0.50000000  0.86046925  1
  Li  Li19  1  0.50000000  -0.00000000  0.13953075  1
  Li  Li20  1  0.00000000  0.00000000  0.00000000  1
  Li  Li21  1  0.50000000  0.50000000  0.00000000  1
  Li  Li22  1  0.11291139  0.19830780  0.18109040  1
  Li  Li23  1  0.88708861  0.80169220  0.18109040  1
  Li  Li24  1  0.38708861  0.69830780  0.81890960  1
  Li  Li25  1  0.61291139  0.30169220  0.81890960  1
  Li  Li26  1  0.88708861  0.80169220  0.81890960  1
  Li  Li27  1  0.11291139  0.19830780  0.81890960  1
  Li  Li28  1  0.61291139  0.30169220  0.18109040  1
  Li  Li29  1  0.38708861  0.69830780  0.18109040  1
  Li  Li30  1  0.00000000  0.50000000  0.50000000  1
  Li  Li31  1  0.50000000  -0.00000000  0.50000000  1
