# generated using pymatgen
data_LiF
_symmetry_space_group_name_H-M   'P 1'
_cell_length_a   13.22831299
_cell_length_b   11.52231170
_cell_length_c   8.56015111
_cell_angle_alpha   90.00000000
_cell_angle_beta   90.00000000
_cell_angle_gamma   90.00000000
_symmetry_Int_Tables_number   1
_chemical_formula_structural   LiF
_chemical_formula_sum   'Li48 F48'
_cell_volume   1304.74461361
_cell_formula_units_Z   48
loop_
 _symmetry_equiv_pos_site_id
 _symmetry_equiv_pos_as_xyz
  1  'x, y, z'
loop_
 _atom_site_type_symbol
 _atom_site_label
 _atom_site_symmetry_multiplicity
 _atom_site_fract_x
 _atom_site_fract_y
 _atom_site_fract_z
 _atom_site_occupancy
  F  F0  1  0.29766578  0.25000000  0.59212617  1
  F  F1  1  0.20233422  0.75000000  0.09212617  1
  F  F2  1  0.70233422  0.75000000  0.40787383  1
  F  F3  1  0.79766578  0.25000000  0.90787383  1
  F  F4  1  0.00000000  0.00000000  0.50000000  1
  F  F5  1  0.50000000  -0.00000000  0.00000000  1
  F  F6  1  0.00000000  0.50000000  0.50000000  1
  F  F7  1  0.50000000  0.50000000  -0.00000000  1
  F  F8  1  0.96387502  0.44304840  0.19332599  1
  F  F9  1  0.53612498  0.55695160  0.69332599  1
  F  F10  1  0.03612498  0.94304840  0.80667401  1
  F  F11  1  0.46387502  0.05695160  0.30667401  1
  F  F12  1  0.03612498  0.55695160  0.80667401  1
  F  F13  1  0.46387502  0.44304840  0.30667401  1
  F  F14  1  0.96387502  0.05695160  0.19332599  1
  F  F15  1  0.53612498  0.94304840  0.69332599  1
  F  F16  1  0.81674828  0.54414121  0.16058508  1
  F  F17  1  0.68325172  0.45585879  0.66058508  1
  F  F18  1  0.18325172  0.04414121  0.83941492  1
  F  F19  1  0.31674828  0.95585879  0.33941492  1
  F  F20  1  0.18325172  0.45585879  0.83941492  1
  F  F21  1  0.31674828  0.54414121  0.33941492  1
  F  F22  1  0.81674828  0.95585879  0.16058508  1
  F  F23  1  0.68325172  0.04414121  0.66058508  1
  F  F24  1  0.78041637  0.28617069  0.25464591  1
  F  F25  1  0.71958363  0.71382931  0.75464591  1
  F  F26  1  0.21958363  0.78617069  0.74535409  1
  F  F27  1  0.28041637  0.21382931  0.24535409  1
  F  F28  1  0.21958363  0.71382931  0.74535409  1
  F  F29  1  0.28041637  0.28617069  0.24535409  1
  F  F30  1  0.78041637  0.21382931  0.25464591  1
  F  F31  1  0.71958363  0.78617069  0.75464591  1
  F  F32  1  0.78872986  0.17630833  0.07274923  1
  F  F33  1  0.71127014  0.82369167  0.57274923  1
  F  F34  1  0.21127014  0.67630833  0.92725077  1
  F  F35  1  0.28872986  0.32369167  0.42725077  1
  F  F36  1  0.21127014  0.82369167  0.92725077  1
  F  F37  1  0.28872986  0.17630833  0.42725077  1
  F  F38  1  0.78872986  0.32369167  0.07274923  1
  F  F39  1  0.71127014  0.67630833  0.57274923  1
  F  F40  1  0.45852216  0.36466529  0.35673475  1
  F  F41  1  0.04147784  0.63533471  0.85673475  1
  F  F42  1  0.54147784  0.86466529  0.64326525  1
  F  F43  1  0.95852216  0.13533471  0.14326525  1
  F  F44  1  0.54147784  0.63533471  0.64326525  1
  F  F45  1  0.95852216  0.36466529  0.14326525  1
  F  F46  1  0.45852216  0.13533471  0.35673475  1
  F  F47  1  0.04147784  0.86466529  0.85673475  1
  Li  Li48  1  0.11459538  0.09506267  0.08614213  1
  Li  Li49  1  0.38540462  -0.09506267  0.58614213  1
  Li  Li50  1  -0.11459538  0.59506267  -0.08614213  1
  Li  Li51  1  0.61459538  0.40493733  0.41385787  1
  Li  Li52  1  -0.11459538  -0.09506267  -0.08614213  1
  Li  Li53  1  0.61459538  0.09506267  0.41385787  1
  Li  Li54  1  0.11459538  0.40493733  0.08614213  1
  Li  Li55  1  0.38540462  0.59506267  0.58614213  1
  Li  Li56  1  0.43370109  0.41938841  0.46000714  1
  Li  Li57  1  0.06629891  0.58061159  0.96000714  1
  Li  Li58  1  0.56629891  0.91938841  0.53999286  1
  Li  Li59  1  0.93370109  0.08061159  0.03999286  1
  Li  Li60  1  0.56629891  0.58061159  0.53999286  1
  Li  Li61  1  0.93370109  0.41938841  0.03999286  1
  Li  Li62  1  0.43370109  0.08061159  0.46000714  1
  Li  Li63  1  0.06629891  0.91938841  0.96000714  1
  Li  Li64  1  0.71766180  0.49468813  0.15228275  1
  Li  Li65  1  0.78233820  0.50531187  0.65228275  1
  Li  Li66  1  0.28233820  0.99468813  0.84771725  1
  Li  Li67  1  0.21766180  0.00531187  0.34771725  1
  Li  Li68  1  0.28233820  0.50531187  0.84771725  1
  Li  Li69  1  0.21766180  0.49468813  0.34771725  1
  Li  Li70  1  0.71766180  0.00531187  0.15228275  1
  Li  Li71  1  0.78233820  0.99468813  0.65228275  1
  Li  Li72  1  0.97718089  0.59709726  0.31854096  1
  Li  Li73  1  0.52281911  0.40290274  0.81854096  1
  Li  Li74  1  0.02281911  0.09709726  0.68145904  1
  Li  Li75  1  0.47718089  0.90290274  0.18145904  1
  Li  Li76  1  0.02281911  0.40290274  0.68145904  1
  Li  Li77  1  0.47718089  0.59709726  0.18145904  1
  Li  Li78  1  0.97718089  0.90290274  0.31854096  1
  Li  Li79  1  0.52281911  0.09709726  0.81854096  1
  Li  Li80  1  0.00000000  0.00000000  0.00000000  1
  Li  Li81  1  0.50000000  -0.00000000  0.50000000  1
  Li  Li82  1  0.00000000  0.50000000  0.00000000  1
  Li  Li83  1  0.50000000  0.50000000  0.50000000  1
  Li  Li84  1  0.19816282  0.66410487  0.08698085  1
  Li  Li85  1  0.30183718  0.33589513  0.58698085  1
  Li  Li86  1  0.80183718  0.16410487  0.91301915  1
  Li  Li87  1  0.69816282  0.83589513  0.41301915  1
  Li  Li88  1  0.80183718  0.33589513  0.91301915  1
  Li  Li89  1  0.69816282  0.66410487  0.41301915  1
  Li  Li90  1  0.19816282  0.83589513  0.08698085  1
  Li  Li91  1  0.30183718  0.16410487  0.58698085  1
  Li  Li92  1  0.27762454  0.25000000  0.12932259  1
  Li  Li93  1  0.22237546  0.75000000  0.62932259  1
  Li  Li94  1  0.72237546  0.75000000  0.87067741  1
  Li  Li95  1  0.77762454  0.25000000  0.37067741  1
