# generated using pymatgen
data_Li2Y2Te4MoP2
_symmetry_space_group_name_H-M   'P 1'
_cell_length_a   5.08739024
_cell_length_b   5.34974440
_cell_length_c   7.05597959
_cell_angle_alpha   94.81428494
_cell_angle_beta   100.48451173
_cell_angle_gamma   109.33706921
_symmetry_Int_Tables_number   1
_chemical_formula_structural   Li2Y2Te4MoP2
_chemical_formula_sum   'Li2 Y2 Te4 Mo1 P2'
_cell_volume   176.01400006
_cell_formula_units_Z   1
loop_
 _symmetry_equiv_pos_site_id
 _symmetry_equiv_pos_as_xyz
  1  'x, y, z'
loop_
 _atom_site_type_symbol
 _atom_site_label
 _atom_site_symmetry_multiplicity
 _atom_site_fract_x
 _atom_site_fract_y
 _atom_site_fract_z
 _atom_site_occupancy
  Te  Te0  1  0.00000000  0.00000000  0.00000000  1
  Te  Te1  1  0.50000000  0.50000000  0.50000000  1
  Te  Te2  1  0.25000000  0.25000000  0.25000000  1
  Te  Te3  1  0.75000000  0.25000000  0.00000000  1
  P  P4  1  0.25000000  0.75000000  0.50000000  1
  P  P5  1  0.88045373  0.08672884  0.53688189  1
  Mo  Mo6  1  0.05910441  0.10260897  0.82400820  1
  Li  Li7  1  0.46559454  0.45656968  0.89519201  1
  Li  Li8  1  0.88543169  0.38966727  0.20412485  1
  Y  Y9  1  0.37683347  0.33866260  0.25380045  1
  Y  Y10  1  0.66601112  0.59920748  0.33539557  1
