# generated using pymatgen
data_LiF
_symmetry_space_group_name_H-M   'P 1'
_cell_length_a   8.00898793
_cell_length_b   9.09251554
_cell_length_c   9.21149217
_cell_angle_alpha   90.00000000
_cell_angle_beta   90.00000000
_cell_angle_gamma   90.00000000
_symmetry_Int_Tables_number   1
_chemical_formula_structural   LiF
_chemical_formula_sum   'Li28 F28'
_cell_volume   670.79787545
_cell_formula_units_Z   28
loop_
 _symmetry_equiv_pos_site_id
 _symmetry_equiv_pos_as_xyz
  1  'x, y, z'
loop_
 _atom_site_type_symbol
 _atom_site_label
 _atom_site_symmetry_multiplicity
 _atom_site_fract_x
 _atom_site_fract_y
 _atom_site_fract_z
 _atom_site_occupancy
  F  F0  1  0.00000000  0.00000000  0.00000000  1
  F  F1  1  0.50000000  0.00000000  0.50000000  1
  F  F2  1  0.00000000  0.50000000  0.00000000  1
  F  F3  1  0.50000000  0.50000000  0.50000000  1
  F  F4  1  0.45834319  0.60525928  0.19389022  1
  F  F5  1  0.04165681  0.39474072  0.69389022  1
  F  F6  1  0.54165681  0.10525928  0.80610978  1
  F  F7  1  0.95834319  0.89474072  0.30610978  1
  F  F8  1  0.54165681  0.39474072  0.80610978  1
  F  F9  1  0.95834319  0.60525928  0.30610978  1
  F  F10  1  0.45834319  0.89474072  0.19389022  1
  F  F11  1  0.04165681  0.10525928  0.69389022  1
  F  F12  1  0.52639281  0.19495720  0.88758864  1
  F  F13  1  0.97360719  0.80504280  0.38758864  1
  F  F14  1  0.47360719  0.69495720  0.11241136  1
  F  F15  1  0.02639281  0.30504280  0.61241136  1
  F  F16  1  0.47360719  0.80504280  0.11241136  1
  F  F17  1  0.02639281  0.19495720  0.61241136  1
  F  F18  1  0.52639281  0.30504280  0.88758864  1
  F  F19  1  0.97360719  0.69495720  0.38758864  1
  F  F20  1  0.11440383  0.47262259  0.71271934  1
  F  F21  1  0.38559617  0.52737741  0.21271934  1
  F  F22  1  0.88559617  0.97262259  0.28728066  1
  F  F23  1  0.61440383  0.02737741  0.78728066  1
  F  F24  1  0.88559617  0.52737741  0.28728066  1
  F  F25  1  0.61440383  0.47262259  0.78728066  1
  F  F26  1  0.11440383  0.02737741  0.71271934  1
  F  F27  1  0.38559617  0.97262259  0.21271934  1
  Li  Li28  1  0.56021246  0.93747775  0.99129556  1
  Li  Li29  1  -0.06021246  -0.93747775  1.49129556  1
  Li  Li30  1  -0.56021246  1.43747775  -0.99129556  1
  Li  Li31  1  1.06021246  -0.43747775  -0.49129556  1
  Li  Li32  1  -0.56021246  -0.93747775  -0.99129556  1
  Li  Li33  1  1.06021246  0.93747775  -0.49129556  1
  Li  Li34  1  0.56021246  -0.43747775  0.99129556  1
  Li  Li35  1  -0.06021246  1.43747775  1.49129556  1
  Li  Li36  1  0.84327374  0.84121279  0.79819462  1
  Li  Li37  1  0.65672626  0.15878721  0.29819462  1
  Li  Li38  1  0.15672626  0.34121279  0.20180538  1
  Li  Li39  1  0.34327374  0.65878721  0.70180538  1
  Li  Li40  1  0.15672626  0.15878721  0.20180538  1
  Li  Li41  1  0.34327374  0.84121279  0.70180538  1
  Li  Li42  1  0.84327374  0.65878721  0.79819462  1
  Li  Li43  1  0.65672626  0.34121279  0.29819462  1
  Li  Li44  1  0.45562007  0.25000000  0.16694813  1
  Li  Li45  1  0.04437993  0.75000000  0.66694813  1
  Li  Li46  1  0.54437993  0.75000000  0.83305187  1
  Li  Li47  1  0.95562007  0.25000000  0.33305187  1
  Li  Li48  1  0.16621317  0.63869388  0.99581461  1
  Li  Li49  1  0.33378683  0.36130612  0.49581461  1
  Li  Li50  1  0.83378683  0.13869388  0.00418539  1
  Li  Li51  1  0.66621317  0.86130612  0.50418539  1
  Li  Li52  1  0.83378683  0.36130612  0.00418539  1
  Li  Li53  1  0.66621317  0.63869388  0.50418539  1
  Li  Li54  1  0.16621317  0.86130612  0.99581461  1
  Li  Li55  1  0.33378683  0.13869388  0.49581461  1
