# generated using pymatgen
data_LiF
_symmetry_space_group_name_H-M   'P 1'
_cell_length_a   17.17040297
_cell_length_b   17.17040297
_cell_length_c   8.37421902
_cell_angle_alpha   90.00000000
_cell_angle_beta   90.00000000
_cell_angle_gamma   90.00000000
_symmetry_Int_Tables_number   1
_chemical_formula_structural   LiF
_chemical_formula_sum   'Li64 F64'
_cell_volume   2468.91018129
_cell_formula_units_Z   64
loop_
 _symmetry_equiv_pos_site_id
 _symmetry_equiv_pos_as_xyz
  1  'x, y, z'
loop_
 _atom_site_type_symbol
 _atom_site_label
 _atom_site_symmetry_multiplicity
 _atom_site_fract_x
 _atom_site_fract_y
 _atom_site_fract_z
 _atom_site_occupancy
  F  F0  1  0.81323690  0.87605799  0.74193918  1
  F  F1  1  0.68676310  0.12394201  0.24193918  1
  F  F2  1  0.37394201  0.56323690  0.99193918  1
  F  F3  1  0.12605799  0.43676310  0.49193918  1
  F  F4  1  0.68676310  0.87605799  0.25806082  1
  F  F5  1  0.81323690  0.12394201  0.75806082  1
  F  F6  1  0.12605799  0.56323690  0.00806082  1
  F  F7  1  0.37394201  0.43676310  0.50806082  1
  F  F8  1  0.18676310  0.12394201  0.25806082  1
  F  F9  1  0.31323690  0.87605799  0.75806082  1
  F  F10  1  0.62605799  0.43676310  0.00806082  1
  F  F11  1  0.87394201  0.56323690  0.50806082  1
  F  F12  1  0.31323690  0.12394201  0.74193918  1
  F  F13  1  0.18676310  0.87605799  0.24193918  1
  F  F14  1  0.87394201  0.43676310  0.99193918  1
  F  F15  1  0.62605799  0.56323690  0.49193918  1
  F  F16  1  0.31323690  0.37605799  0.24193918  1
  F  F17  1  0.18676310  0.62394201  0.74193918  1
  F  F18  1  0.87394201  0.06323690  0.49193918  1
  F  F19  1  0.62605799  0.93676310  0.99193918  1
  F  F20  1  0.18676310  0.37605799  0.75806082  1
  F  F21  1  0.31323690  0.62394201  0.25806082  1
  F  F22  1  0.62605799  0.06323690  0.50806082  1
  F  F23  1  0.87394201  0.93676310  0.00806082  1
  F  F24  1  0.68676310  0.62394201  0.75806082  1
  F  F25  1  0.81323690  0.37605799  0.25806082  1
  F  F26  1  0.12605799  0.93676310  0.50806082  1
  F  F27  1  0.37394201  0.06323690  0.00806082  1
  F  F28  1  0.81323690  0.62394201  0.24193918  1
  F  F29  1  0.68676310  0.37605799  0.74193918  1
  F  F30  1  0.37394201  0.93676310  0.49193918  1
  F  F31  1  0.12605799  0.06323690  0.99193918  1
  F  F32  1  0.23648829  0.28246234  0.24354836  1
  F  F33  1  0.26351171  0.71753766  0.74354836  1
  F  F34  1  0.96753766  0.98648829  0.49354836  1
  F  F35  1  0.53246234  0.01351171  0.99354836  1
  F  F36  1  0.26351171  0.28246234  0.75645164  1
  F  F37  1  0.23648829  0.71753766  0.25645164  1
  F  F38  1  0.53246234  0.98648829  0.50645164  1
  F  F39  1  0.96753766  0.01351171  0.00645164  1
  F  F40  1  0.76351171  0.71753766  0.75645164  1
  F  F41  1  0.73648829  0.28246234  0.25645164  1
  F  F42  1  0.03246234  0.01351171  0.50645164  1
  F  F43  1  0.46753766  0.98648829  0.00645164  1
  F  F44  1  0.73648829  0.71753766  0.24354836  1
  F  F45  1  0.76351171  0.28246234  0.74354836  1
  F  F46  1  0.46753766  0.01351171  0.49354836  1
  F  F47  1  0.03246234  0.98648829  0.99354836  1
  F  F48  1  0.73648829  0.78246234  0.74354836  1
  F  F49  1  0.76351171  0.21753766  0.24354836  1
  F  F50  1  0.46753766  0.48648829  0.99354836  1
  F  F51  1  0.03246234  0.51351171  0.49354836  1
  F  F52  1  0.76351171  0.78246234  0.25645164  1
  F  F53  1  0.73648829  0.21753766  0.75645164  1
  F  F54  1  0.03246234  0.48648829  0.00645164  1
  F  F55  1  0.46753766  0.51351171  0.50645164  1
  F  F56  1  0.26351171  0.21753766  0.25645164  1
  F  F57  1  0.23648829  0.78246234  0.75645164  1
  F  F58  1  0.53246234  0.51351171  0.00645164  1
  F  F59  1  0.96753766  0.48648829  0.50645164  1
  F  F60  1  0.23648829  0.21753766  0.74354836  1
  F  F61  1  0.26351171  0.78246234  0.24354836  1
  F  F62  1  0.96753766  0.51351171  0.99354836  1
  F  F63  1  0.53246234  0.48648829  0.49354836  1
  Li  Li64  1  0.45273667  0.45611418  0.37542573  1
  Li  Li65  1  0.04726333  -0.45611418  0.87542573  1
  Li  Li66  1  -0.20611418  1.20273667  0.62542573  1
  Li  Li67  1  0.70611418  -0.20273667  1.12542573  1
  Li  Li68  1  0.04726333  0.45611418  -0.37542573  1
  Li  Li69  1  0.45273667  -0.45611418  0.12457427  1
  Li  Li70  1  0.70611418  1.20273667  0.37457427  1
  Li  Li71  1  -0.20611418  -0.20273667  -0.12542573  1
  Li  Li72  1  -0.45273667  -0.45611418  -0.37542573  1
  Li  Li73  1  0.95273667  0.45611418  0.12457427  1
  Li  Li74  1  1.20611418  -0.20273667  0.37457427  1
  Li  Li75  1  0.29388582  1.20273667  -0.12542573  1
  Li  Li76  1  0.95273667  -0.45611418  0.37542573  1
  Li  Li77  1  -0.45273667  0.45611418  0.87542573  1
  Li  Li78  1  0.29388582  -0.20273667  0.62542573  1
  Li  Li79  1  1.20611418  1.20273667  1.12542573  1
  Li  Li80  1  0.95273667  0.95611418  0.87542573  1
  Li  Li81  1  0.54726333  0.04388582  1.37542573  1
  Li  Li82  1  0.29388582  1.70273667  1.12542573  1
  Li  Li83  1  1.20611418  0.29726333  1.62542573  1
  Li  Li84  1  0.54726333  0.95611418  0.12457427  1
  Li  Li85  1  0.95273667  0.04388582  0.62457427  1
  Li  Li86  1  1.20611418  1.70273667  0.87457427  1
  Li  Li87  1  0.29388582  0.29726333  0.37457427  1
  Li  Li88  1  0.04726333  0.04388582  0.12457427  1
  Li  Li89  1  1.45273667  0.95611418  0.62457427  1
  Li  Li90  1  1.70611418  0.29726333  0.87457427  1
  Li  Li91  1  0.79388582  1.70273667  0.37457427  1
  Li  Li92  1  1.45273667  0.04388582  0.87542573  1
  Li  Li93  1  0.04726333  0.95611418  1.37542573  1
  Li  Li94  1  0.79388582  0.29726333  1.12542573  1
  Li  Li95  1  1.70611418  1.70273667  1.62542573  1
  Li  Li96  1  0.58584845  0.01157564  0.83410005  1
  Li  Li97  1  0.91415155  0.98842436  0.33410005  1
  Li  Li98  1  0.23842436  0.33584845  0.08410005  1
  Li  Li99  1  0.26157564  0.66415155  0.58410005  1
  Li  Li100  1  0.91415155  0.01157564  0.16589995  1
  Li  Li101  1  0.58584845  0.98842436  0.66589995  1
  Li  Li102  1  0.26157564  0.33584845  0.91589995  1
  Li  Li103  1  0.23842436  0.66415155  0.41589995  1
  Li  Li104  1  0.41415155  0.98842436  0.16589995  1
  Li  Li105  1  0.08584845  0.01157564  0.66589995  1
  Li  Li106  1  0.76157564  0.66415155  0.91589995  1
  Li  Li107  1  0.73842436  0.33584845  0.41589995  1
  Li  Li108  1  0.08584845  0.98842436  0.83410005  1
  Li  Li109  1  0.41415155  0.01157564  0.33410005  1
  Li  Li110  1  0.73842436  0.66415155  0.08410005  1
  Li  Li111  1  0.76157564  0.33584845  0.58410005  1
  Li  Li112  1  0.08584845  0.51157564  0.33410005  1
  Li  Li113  1  0.41415155  0.48842436  0.83410005  1
  Li  Li114  1  0.73842436  0.83584845  0.58410005  1
  Li  Li115  1  0.76157564  0.16415155  0.08410005  1
  Li  Li116  1  0.41415155  0.51157564  0.66589995  1
  Li  Li117  1  0.08584845  0.48842436  0.16589995  1
  Li  Li118  1  0.76157564  0.83584845  0.41589995  1
  Li  Li119  1  0.73842436  0.16415155  0.91589995  1
  Li  Li120  1  0.91415155  0.48842436  0.66589995  1
  Li  Li121  1  0.58584845  0.51157564  0.16589995  1
  Li  Li122  1  0.26157564  0.16415155  0.41589995  1
  Li  Li123  1  0.23842436  0.83584845  0.91589995  1
  Li  Li124  1  0.58584845  0.48842436  0.33410005  1
  Li  Li125  1  0.91415155  0.51157564  0.83410005  1
  Li  Li126  1  0.23842436  0.16415155  0.58410005  1
  Li  Li127  1  0.26157564  0.83584845  0.08410005  1
