# generated using pymatgen
data_LiF
_symmetry_space_group_name_H-M   'P 1'
_cell_length_a   3.20136022
_cell_length_b   8.00574082
_cell_length_c   8.21535049
_cell_angle_alpha   90.00000000
_cell_angle_beta   90.00000000
_cell_angle_gamma   90.00000000
_symmetry_Int_Tables_number   1
_chemical_formula_structural   LiF
_chemical_formula_sum   'Li8 F8'
_cell_volume   210.55335506
_cell_formula_units_Z   8
loop_
 _symmetry_equiv_pos_site_id
 _symmetry_equiv_pos_as_xyz
  1  'x, y, z'
loop_
 _atom_site_type_symbol
 _atom_site_label
 _atom_site_symmetry_multiplicity
 _atom_site_fract_x
 _atom_site_fract_y
 _atom_site_fract_z
 _atom_site_occupancy
  F  F0  1  0.58146645  0.95125738  0.00000000  1
  F  F1  1  -0.58146645  -0.95125738  -0.00000000  1
  F  F2  1  -0.08146645  1.45125738  0.50000000  1
  F  F3  1  1.08146645  -0.45125738  0.50000000  1
  F  F4  1  0.00000000  0.50000000  0.00000000  1
  F  F5  1  0.50000000  -0.00000000  0.50000000  1
  F  F6  1  0.00000000  0.00000000  0.00000000  1
  F  F7  1  0.50000000  0.50000000  0.50000000  1
  Li  Li8  1  0.37066029  0.40688407  0.00000000  1
  Li  Li9  1  0.62933971  0.59311593  0.00000000  1
  Li  Li10  1  0.12933971  0.90688407  0.50000000  1
  Li  Li11  1  0.87066029  0.09311593  0.50000000  1
  Li  Li12  1  0.42528280  0.82066503  0.00000000  1
  Li  Li13  1  0.57471720  0.17933497  0.00000000  1
  Li  Li14  1  0.07471720  0.32066503  0.50000000  1
  Li  Li15  1  0.92528280  0.67933497  0.50000000  1
