# generated using pymatgen
data_LiF
_symmetry_space_group_name_H-M   'P 1'
_cell_length_a   9.06690819
_cell_length_b   9.42882518
_cell_length_c   5.90109066
_cell_angle_alpha   90.00000000
_cell_angle_beta   90.00000000
_cell_angle_gamma   90.00000000
_symmetry_Int_Tables_number   1
_chemical_formula_structural   LiF
_chemical_formula_sum   'Li18 F18'
_cell_volume   504.48596522
_cell_formula_units_Z   18
loop_
 _symmetry_equiv_pos_site_id
 _symmetry_equiv_pos_as_xyz
  1  'x, y, z'
loop_
 _atom_site_type_symbol
 _atom_site_label
 _atom_site_symmetry_multiplicity
 _atom_site_fract_x
 _atom_site_fract_y
 _atom_site_fract_z
 _atom_site_occupancy
  F  F0  1  0.00000000  0.00000000  0.17793091  1
  F  F1  1  0.50000000  0.50000000  0.82206909  1
  F  F2  1  0.00000000  0.00000000  0.82206909  1
  F  F3  1  0.50000000  0.50000000  0.17793091  1
  F  F4  1  0.00000000  0.50000000  0.00000000  1
  F  F5  1  0.50000000  0.00000000  0.00000000  1
  F  F6  1  0.77215341  0.32826857  0.00000000  1
  F  F7  1  0.22784659  0.67173143  0.00000000  1
  F  F8  1  0.72784659  0.82826857  0.00000000  1
  F  F9  1  0.27215341  0.17173143  -0.00000000  1
  F  F10  1  0.96715278  0.75492835  0.55892554  1
  F  F11  1  0.03284722  0.24507165  0.55892554  1
  F  F12  1  0.53284722  0.25492835  0.44107446  1
  F  F13  1  0.46715278  0.74507165  0.44107446  1
  F  F14  1  0.03284722  0.24507165  0.44107446  1
  F  F15  1  0.96715278  0.75492835  0.44107446  1
  F  F16  1  0.46715278  0.74507165  0.55892554  1
  F  F17  1  0.53284722  0.25492835  0.55892554  1
  Li  Li18  1  0.59605411  0.43500511  0.34305998  1
  Li  Li19  1  -0.59605411  -0.43500511  0.34305998  1
  Li  Li20  1  -0.09605411  0.93500511  -0.34305998  1
  Li  Li21  1  1.09605411  0.06499489  -0.34305998  1
  Li  Li22  1  -0.59605411  -0.43500511  -0.34305998  1
  Li  Li23  1  0.59605411  0.43500511  -0.34305998  1
  Li  Li24  1  1.09605411  0.06499489  0.34305998  1
  Li  Li25  1  -0.09605411  0.93500511  0.34305998  1
  Li  Li26  1  0.00000000  0.00000000  0.50000000  1
  Li  Li27  1  0.50000000  0.50000000  0.50000000  1
  Li  Li28  1  0.55226399  0.89111625  0.00000000  1
  Li  Li29  1  0.44773601  0.10888375  -0.00000000  1
  Li  Li30  1  0.94773601  0.39111625  0.00000000  1
  Li  Li31  1  0.05226399  0.60888375  0.00000000  1
  Li  Li32  1  0.79953861  0.61454886  0.00000000  1
  Li  Li33  1  0.20046139  0.38545114  0.00000000  1
  Li  Li34  1  0.70046139  0.11454886  -0.00000000  1
  Li  Li35  1  0.29953861  0.88545114  0.00000000  1
