# generated using pymatgen
data_LiCu3(PSe)2
_symmetry_space_group_name_H-M   'P 1'
_cell_length_a   4.32742018
_cell_length_b   4.55098305
_cell_length_c   6.73409312
_cell_angle_alpha   95.81819643
_cell_angle_beta   102.27181211
_cell_angle_gamma   112.74362916
_symmetry_Int_Tables_number   1
_chemical_formula_structural   LiCu3(PSe)2
_chemical_formula_sum   'Li1 Cu3 P2 Se2'
_cell_volume   117.00930387
_cell_formula_units_Z   1
loop_
 _symmetry_equiv_pos_site_id
 _symmetry_equiv_pos_as_xyz
  1  'x, y, z'
loop_
 _atom_site_type_symbol
 _atom_site_label
 _atom_site_symmetry_multiplicity
 _atom_site_fract_x
 _atom_site_fract_y
 _atom_site_fract_z
 _atom_site_occupancy
  P  P0  1  0.12500000  0.12500000  0.12500000  1
  P  P1  1  0.50000000  0.50000000  0.50000000  1
  Se  Se2  1  0.25000000  0.25000000  0.25000000  1
  Se  Se3  1  0.75000000  0.75000000  0.75000000  1
  Li  Li4  1  0.54184103  0.35357914  0.18954737  1
  Cu  Cu5  1  0.57428386  0.07397398  0.94678846  1
  Cu  Cu6  1  0.47663000  0.58761519  0.96944653  1
  Cu  Cu7  1  0.16464548  0.78163394  0.10207625  1
