# generated using pymatgen
data_LiY2Cu3P2Se
_symmetry_space_group_name_H-M   'P 1'
_cell_length_a   4.36818424
_cell_length_b   4.55122603
_cell_length_c   6.27488489
_cell_angle_alpha   95.75578557
_cell_angle_beta   100.44719087
_cell_angle_gamma   108.09331225
_symmetry_Int_Tables_number   1
_chemical_formula_structural   LiY2Cu3P2Se
_chemical_formula_sum   'Li1 Y2 Cu3 P2 Se1'
_cell_volume   114.96606533
_cell_formula_units_Z   1
loop_
 _symmetry_equiv_pos_site_id
 _symmetry_equiv_pos_as_xyz
  1  'x, y, z'
loop_
 _atom_site_type_symbol
 _atom_site_label
 _atom_site_symmetry_multiplicity
 _atom_site_fract_x
 _atom_site_fract_y
 _atom_site_fract_z
 _atom_site_occupancy
  P  P0  1  0.00000000  0.00000000  0.00000000  1
  P  P1  1  0.50000000  0.50000000  0.50000000  1
  Se  Se2  1  0.50000000  0.50000000  0.00000000  1
  Li  Li3  1  0.50000000  0.00000000  0.50000000  1
  Y  Y4  1  0.00000000  0.50000000  0.50000000  1
  Y  Y5  1  0.09991092  0.24417634  0.77365381  1
  Cu  Cu6  1  0.85993164  0.17731140  0.31888924  1
  Cu  Cu7  1  0.24356465  0.45190272  0.03141800  1
  Cu  Cu8  1  0.54799623  0.83657316  0.56940176  1
