# generated using pymatgen
data_LiF
_symmetry_space_group_name_H-M   'P 1'
_cell_length_a   9.76619864
_cell_length_b   9.76619864
_cell_length_c   7.38125982
_cell_angle_alpha   90.00000000
_cell_angle_beta   90.00000000
_cell_angle_gamma   120.00000000
_symmetry_Int_Tables_number   1
_chemical_formula_structural   LiF
_chemical_formula_sum   'Li22 F22'
_cell_volume   609.69443521
_cell_formula_units_Z   22
loop_
 _symmetry_equiv_pos_site_id
 _symmetry_equiv_pos_as_xyz
  1  'x, y, z'
loop_
 _atom_site_type_symbol
 _atom_site_label
 _atom_site_symmetry_multiplicity
 _atom_site_fract_x
 _atom_site_fract_y
 _atom_site_fract_z
 _atom_site_occupancy
  F  F0  1  0.33333333  0.66666667  0.88159421  1
  F  F1  1  0.33333333  0.66666667  0.11840579  1
  F  F2  1  0.33333333  0.66666667  0.50000000  1
  F  F3  1  0.37802657  0.35527551  0.58542863  1
  F  F4  1  0.64472449  0.02275106  0.58542863  1
  F  F5  1  0.97724894  0.62197343  0.58542863  1
  F  F6  1  0.64472449  0.62197343  0.41457137  1
  F  F7  1  0.97724894  0.35527551  0.41457137  1
  F  F8  1  0.37802657  0.02275106  0.41457137  1
  F  F9  1  0.54073693  0.45926307  0.50000000  1
  F  F10  1  0.54073693  0.08147387  0.50000000  1
  F  F11  1  0.91852613  0.45926307  0.50000000  1
  F  F12  1  0.83228953  0.20900469  0.44787565  1
  F  F13  1  0.79099531  0.62328484  0.44787565  1
  F  F14  1  0.37671516  0.16771047  0.44787565  1
  F  F15  1  0.79099531  0.16771047  0.55212435  1
  F  F16  1  0.37671516  0.20900469  0.55212435  1
  F  F17  1  0.83228953  0.62328484  0.55212435  1
  F  F18  1  0.29805610  0.70194390  0.50000000  1
  F  F19  1  0.29805610  0.59611221  0.50000000  1
  F  F20  1  0.40388779  0.70194390  0.50000000  1
  F  F21  1  0.33333333  0.66666667  0.00000000  1
  Li  Li22  1  0.73225136  0.26774864  0.00000000  1
  Li  Li23  1  0.73225136  0.46450271  0.00000000  1
  Li  Li24  1  0.53549729  0.26774864  0.00000000  1
  Li  Li25  1  0.00000000  0.00000000  0.00000000  1
  Li  Li26  1  0.09409464  0.90590536  0.00000000  1
  Li  Li27  1  0.09409464  0.18818928  -0.00000000  1
  Li  Li28  1  0.81181072  0.90590536  0.00000000  1
  Li  Li29  1  0.40489874  0.48805668  0.14303510  1
  Li  Li30  1  -0.48805668  -0.08315794  0.14303510  1
  Li  Li31  1  0.08315794  -0.40489874  0.14303510  1
  Li  Li32  1  -0.48805668  -0.40489874  -0.14303510  1
  Li  Li33  1  0.08315794  0.48805668  -0.14303510  1
  Li  Li34  1  0.40489874  -0.08315794  -0.14303510  1
  Li  Li35  1  0.09037632  0.84651860  0.65898351  1
  Li  Li36  1  0.15348140  0.24385772  0.65898351  1
  Li  Li37  1  0.75614228  0.90962368  0.65898351  1
  Li  Li38  1  0.15348140  0.90962368  0.34101649  1
  Li  Li39  1  0.75614228  0.84651860  0.34101649  1
  Li  Li40  1  0.09037632  0.24385772  0.34101649  1
  Li  Li41  1  0.66666667  0.33333333  0.72923729  1
  Li  Li42  1  0.66666667  0.33333333  0.27076271  1
  Li  Li43  1  0.00000000  0.00000000  0.50000000  1
