# generated using pymatgen
data_Li2Ca3F8
_symmetry_space_group_name_H-M   'P 1'
_cell_length_a   15.47247976
_cell_length_b   15.47247976
_cell_length_c   7.98063131
_cell_angle_alpha   90.00000000
_cell_angle_beta   90.00000000
_cell_angle_gamma   90.00000000
_symmetry_Int_Tables_number   1
_chemical_formula_structural   Li2Ca3F8
_chemical_formula_sum   'Li16 Ca24 F64'
_cell_volume   1910.54422208
_cell_formula_units_Z   8
loop_
 _symmetry_equiv_pos_site_id
 _symmetry_equiv_pos_as_xyz
  1  'x, y, z'
loop_
 _atom_site_type_symbol
 _atom_site_label
 _atom_site_symmetry_multiplicity
 _atom_site_fract_x
 _atom_site_fract_y
 _atom_site_fract_z
 _atom_site_occupancy
  Ca  Ca0  1  0.25245271  0.50000000  0.21905790  1
  Ca  Ca1  1  0.74754729  0.50000000  0.21905790  1
  Ca  Ca2  1  0.50000000  0.25245271  0.21905790  1
  Ca  Ca3  1  0.50000000  0.74754729  0.21905790  1
  Ca  Ca4  1  0.74754729  0.50000000  0.78094210  1
  Ca  Ca5  1  0.25245271  0.50000000  0.78094210  1
  Ca  Ca6  1  0.50000000  0.25245271  0.78094210  1
  Ca  Ca7  1  0.50000000  0.74754729  0.78094210  1
  Ca  Ca8  1  0.77638071  0.50000000  0.50000000  1
  Ca  Ca9  1  0.22361929  0.50000000  0.50000000  1
  Ca  Ca10  1  0.50000000  0.77638071  0.50000000  1
  Ca  Ca11  1  0.50000000  0.22361929  0.50000000  1
  Ca  Ca12  1  0.36415094  0.50000000  0.86204175  1
  Ca  Ca13  1  0.63584906  0.50000000  0.86204175  1
  Ca  Ca14  1  0.50000000  0.36415094  0.86204175  1
  Ca  Ca15  1  0.50000000  0.63584906  0.86204175  1
  Ca  Ca16  1  0.63584906  0.50000000  0.13795825  1
  Ca  Ca17  1  0.36415094  0.50000000  0.13795825  1
  Ca  Ca18  1  0.50000000  0.36415094  0.13795825  1
  Ca  Ca19  1  0.50000000  0.63584906  0.13795825  1
  Ca  Ca20  1  0.12722110  0.00000000  0.50000000  1
  Ca  Ca21  1  0.87277890  0.00000000  0.50000000  1
  Ca  Ca22  1  0.00000000  0.12722110  0.50000000  1
  Ca  Ca23  1  0.00000000  0.87277890  0.50000000  1
  F  F24  1  0.60574542  0.88213615  0.40800214  1
  F  F25  1  -0.60574542  -0.88213615  0.40800214  1
  F  F26  1  -0.88213615  0.60574542  0.40800214  1
  F  F27  1  0.88213615  -0.60574542  0.40800214  1
  F  F28  1  -0.60574542  0.88213615  -0.40800214  1
  F  F29  1  0.60574542  -0.88213615  -0.40800214  1
  F  F30  1  0.88213615  0.60574542  -0.40800214  1
  F  F31  1  -0.88213615  -0.60574542  -0.40800214  1
  F  F32  1  -0.60574542  -0.88213615  -0.40800214  1
  F  F33  1  0.60574542  0.88213615  -0.40800214  1
  F  F34  1  0.88213615  -0.60574542  -0.40800214  1
  F  F35  1  -0.88213615  0.60574542  -0.40800214  1
  F  F36  1  0.60574542  -0.88213615  0.40800214  1
  F  F37  1  -0.60574542  0.88213615  0.40800214  1
  F  F38  1  -0.88213615  -0.60574542  0.40800214  1
  F  F39  1  0.88213615  0.60574542  0.40800214  1
  F  F40  1  0.50000000  0.50000000  0.50000000  1
  F  F41  1  0.32214010  0.32214010  0.26477101  1
  F  F42  1  0.67785990  0.67785990  0.26477101  1
  F  F43  1  0.67785990  0.32214010  0.26477101  1
  F  F44  1  0.32214010  0.67785990  0.26477101  1
  F  F45  1  0.67785990  0.32214010  0.73522899  1
  F  F46  1  0.32214010  0.67785990  0.73522899  1
  F  F47  1  0.32214010  0.32214010  0.73522899  1
  F  F48  1  0.67785990  0.67785990  0.73522899  1
  F  F49  1  0.81099250  0.50000000  0.00000000  1
  F  F50  1  0.18900750  0.50000000  0.00000000  1
  F  F51  1  0.50000000  0.81099250  0.00000000  1
  F  F52  1  0.50000000  0.18900750  0.00000000  1
  F  F53  1  0.40149861  0.72048761  0.04630708  1
  F  F54  1  0.59850139  0.27951239  0.04630708  1
  F  F55  1  0.27951239  0.40149861  0.04630708  1
  F  F56  1  0.72048761  0.59850139  0.04630708  1
  F  F57  1  0.59850139  0.72048761  0.95369292  1
  F  F58  1  0.40149861  0.27951239  0.95369292  1
  F  F59  1  0.72048761  0.40149861  0.95369292  1
  F  F60  1  0.27951239  0.59850139  0.95369292  1
  F  F61  1  0.59850139  0.27951239  0.95369292  1
  F  F62  1  0.40149861  0.72048761  0.95369292  1
  F  F63  1  0.72048761  0.59850139  0.95369292  1
  F  F64  1  0.27951239  0.40149861  0.95369292  1
  F  F65  1  0.40149861  0.27951239  0.04630708  1
  F  F66  1  0.59850139  0.72048761  0.04630708  1
  F  F67  1  0.27951239  0.59850139  0.04630708  1
  F  F68  1  0.72048761  0.40149861  0.04630708  1
  F  F69  1  0.63865525  0.90613619  0.04543721  1
  F  F70  1  0.36134475  0.09386381  0.04543721  1
  F  F71  1  0.09386381  0.63865525  0.04543721  1
  F  F72  1  0.90613619  0.36134475  0.04543721  1
  F  F73  1  0.36134475  0.90613619  0.95456279  1
  F  F74  1  0.63865525  0.09386381  0.95456279  1
  F  F75  1  0.90613619  0.63865525  0.95456279  1
  F  F76  1  0.09386381  0.36134475  0.95456279  1
  F  F77  1  0.36134475  0.09386381  0.95456279  1
  F  F78  1  0.63865525  0.90613619  0.95456279  1
  F  F79  1  0.90613619  0.36134475  0.95456279  1
  F  F80  1  0.09386381  0.63865525  0.95456279  1
  F  F81  1  0.63865525  0.09386381  0.04543721  1
  F  F82  1  0.36134475  0.90613619  0.04543721  1
  F  F83  1  0.09386381  0.36134475  0.04543721  1
  F  F84  1  0.90613619  0.63865525  0.04543721  1
  F  F85  1  0.50000000  0.50000000  0.57417419  1
  F  F86  1  0.50000000  0.50000000  0.42582581  1
  F  F87  1  0.50000000  0.50000000  -0.00000000  1
  Li  Li88  1  0.10251085  0.50000000  0.50000000  1
  Li  Li89  1  0.89748915  0.50000000  0.50000000  1
  Li  Li90  1  0.50000000  0.10251085  0.50000000  1
  Li  Li91  1  0.50000000  0.89748915  0.50000000  1
  Li  Li92  1  0.00000000  0.50000000  0.00000000  1
  Li  Li93  1  0.50000000  0.00000000  0.00000000  1
  Li  Li94  1  0.88206352  0.88206352  0.50000000  1
  Li  Li95  1  0.11793648  0.11793648  0.50000000  1
  Li  Li96  1  0.11793648  0.88206352  0.50000000  1
  Li  Li97  1  0.88206352  0.11793648  0.50000000  1
  Li  Li98  1  0.91819581  0.91819581  0.00000000  1
  Li  Li99  1  0.08180419  0.08180419  0.00000000  1
  Li  Li100  1  0.08180419  0.91819581  0.00000000  1
  Li  Li101  1  0.91819581  0.08180419  0.00000000  1
  Li  Li102  1  0.50000000  0.50000000  0.81240976  1
  Li  Li103  1  0.50000000  0.50000000  0.18759024  1
