# generated using pymatgen
data_Li2As2P2Se
_symmetry_space_group_name_H-M   'P 1'
_cell_length_a   5.05761688
_cell_length_b   5.21063609
_cell_length_c   7.13655240
_cell_angle_alpha   94.56315441
_cell_angle_beta   99.48775000
_cell_angle_gamma   107.62289124
_symmetry_Int_Tables_number   1
_chemical_formula_structural   Li2As2P2Se
_chemical_formula_sum   'Li2 As2 P2 Se1'
_cell_volume   175.10955270
_cell_formula_units_Z   1
loop_
 _symmetry_equiv_pos_site_id
 _symmetry_equiv_pos_as_xyz
  1  'x, y, z'
loop_
 _atom_site_type_symbol
 _atom_site_label
 _atom_site_symmetry_multiplicity
 _atom_site_fract_x
 _atom_site_fract_y
 _atom_site_fract_z
 _atom_site_occupancy
  P  P0  1  0.12500000  0.12500000  0.12500000  1
  P  P1  1  0.50000000  0.50000000  0.50000000  1
  Se  Se2  1  0.25000000  0.25000000  0.25000000  1
  As  As3  1  0.75000000  0.75000000  0.75000000  1
  As  As4  1  0.33471117  0.94131473  0.14819847  1
  Li  Li5  1  0.40460969  0.90768016  0.98357156  1
  Li  Li6  1  0.70787855  0.69270180  0.17733834  1
