# generated using pymatgen
data_LiF
_symmetry_space_group_name_H-M   'P 1'
_cell_length_a   12.94913420
_cell_length_b   12.94913420
_cell_length_c   11.81014485
_cell_angle_alpha   90.00000000
_cell_angle_beta   90.00000000
_cell_angle_gamma   120.00000000
_symmetry_Int_Tables_number   1
_chemical_formula_structural   LiF
_chemical_formula_sum   'Li55 F55'
_cell_volume   1715.01261712
_cell_formula_units_Z   55
loop_
 _symmetry_equiv_pos_site_id
 _symmetry_equiv_pos_as_xyz
  1  'x, y, z'
loop_
 _atom_site_type_symbol
 _atom_site_label
 _atom_site_symmetry_multiplicity
 _atom_site_fract_x
 _atom_site_fract_y
 _atom_site_fract_z
 _atom_site_occupancy
  F  F0  1  0.00000000  0.00000000  0.04546064  1
  F  F1  1  0.00000000  0.00000000  0.95453936  1
  F  F2  1  0.33333333  0.66666667  0.84421492  1
  F  F3  1  0.33333333  0.66666667  0.15578508  1
  F  F4  1  0.33333333  0.66666667  0.23127804  1
  F  F5  1  0.33333333  0.66666667  0.76872196  1
  F  F6  1  0.15076567  0.07439294  0.59084517  1
  F  F7  1  0.92560706  0.07637273  0.59084517  1
  F  F8  1  0.92362727  0.84923433  0.59084517  1
  F  F9  1  0.92560706  0.84923433  0.40915483  1
  F  F10  1  0.92362727  0.07439294  0.40915483  1
  F  F11  1  0.15076567  0.07637273  0.40915483  1
  F  F12  1  0.39384658  0.41980842  0.35009716  1
  F  F13  1  0.58019158  0.97403815  0.35009716  1
  F  F14  1  0.02596185  0.60615342  0.35009716  1
  F  F15  1  0.58019158  0.60615342  0.64990284  1
  F  F16  1  0.02596185  0.41980842  0.64990284  1
  F  F17  1  0.39384658  0.97403815  0.64990284  1
  F  F18  1  0.93673538  0.37003580  0.12670709  1
  F  F19  1  0.62996420  0.56669958  0.12670709  1
  F  F20  1  0.43330042  0.06326462  0.12670709  1
  F  F21  1  0.62996420  0.06326462  0.87329291  1
  F  F22  1  0.43330042  0.37003580  0.87329291  1
  F  F23  1  0.93673538  0.56669958  0.87329291  1
  F  F24  1  0.56659288  0.89298724  0.88672956  1
  F  F25  1  0.10701276  0.67360563  0.88672956  1
  F  F26  1  0.32639437  0.43340712  0.88672956  1
  F  F27  1  0.10701276  0.43340712  0.11327044  1
  F  F28  1  0.32639437  0.89298724  0.11327044  1
  F  F29  1  0.56659288  0.67360563  0.11327044  1
  F  F30  1  0.66666667  0.33333333  -0.00000000  1
  F  F31  1  0.54762967  0.45237033  0.50000000  1
  F  F32  1  0.54762967  0.09525934  0.50000000  1
  F  F33  1  0.90474066  0.45237033  0.50000000  1
  F  F34  1  0.05422335  0.15010279  0.17609179  1
  F  F35  1  0.84989721  0.90412056  0.17609179  1
  F  F36  1  0.09587944  0.94577665  0.17609179  1
  F  F37  1  0.84989721  0.94577665  0.82390821  1
  F  F38  1  0.09587944  0.15010279  0.82390821  1
  F  F39  1  0.05422335  0.90412056  0.82390821  1
  F  F40  1  0.89753832  0.61108866  0.28726621  1
  F  F41  1  0.38891134  0.28644966  0.28726621  1
  F  F42  1  0.71355034  0.10246168  0.28726621  1
  F  F43  1  0.38891134  0.10246168  0.71273379  1
  F  F44  1  0.71355034  0.61108866  0.71273379  1
  F  F45  1  0.89753832  0.28644966  0.71273379  1
  F  F46  1  0.95146433  0.52515962  0.45060646  1
  F  F47  1  0.47484038  0.42630471  0.45060646  1
  F  F48  1  0.57369529  0.04853567  0.45060646  1
  F  F49  1  0.47484038  0.04853567  0.54939354  1
  F  F50  1  0.57369529  0.52515962  0.54939354  1
  F  F51  1  0.95146433  0.42630471  0.54939354  1
  F  F52  1  0.78803351  0.21196649  0.50000000  1
  F  F53  1  0.78803351  0.57606702  0.50000000  1
  F  F54  1  0.42393298  0.21196649  0.50000000  1
  Li  Li55  1  0.33333333  0.66666667  -0.00000000  1
  Li  Li56  1  0.33333333  0.66666667  0.50000000  1
  Li  Li57  1  0.33982081  0.28826111  0.54229575  1
  Li  Li58  1  -0.28826111  0.05155970  0.54229575  1
  Li  Li59  1  -0.05155970  -0.33982081  0.54229575  1
  Li  Li60  1  -0.28826111  -0.33982081  -0.54229575  1
  Li  Li61  1  -0.05155970  0.28826111  -0.54229575  1
  Li  Li62  1  0.33982081  0.05155970  -0.54229575  1
  Li  Li63  1  0.05958811  0.94041189  0.50000000  1
  Li  Li64  1  0.05958811  0.11917621  0.50000000  1
  Li  Li65  1  0.88082379  0.94041189  0.50000000  1
  Li  Li66  1  0.33826335  0.53594700  0.81797390  1
  Li  Li67  1  0.46405300  0.80231635  0.81797390  1
  Li  Li68  1  0.19768365  0.66173665  0.81797390  1
  Li  Li69  1  0.46405300  0.66173665  0.18202610  1
  Li  Li70  1  0.19768365  0.53594700  0.18202610  1
  Li  Li71  1  0.33826335  0.80231635  0.18202610  1
  Li  Li72  1  0.66666667  0.33333333  0.79709223  1
  Li  Li73  1  0.66666667  0.33333333  0.20290777  1
  Li  Li74  1  0.55786086  0.64180824  0.97304687  1
  Li  Li75  1  0.35819176  0.91605263  0.97304687  1
  Li  Li76  1  0.08394737  0.44213914  0.97304687  1
  Li  Li77  1  0.35819176  0.44213914  0.02695313  1
  Li  Li78  1  0.08394737  0.64180824  0.02695313  1
  Li  Li79  1  0.55786086  0.91605263  0.02695313  1
  Li  Li80  1  0.45421986  0.54578014  -0.00000000  1
  Li  Li81  1  0.45421986  0.90843972  -0.00000000  1
  Li  Li82  1  0.09156028  0.54578014  -0.00000000  1
  Li  Li83  1  0.66666667  0.33333333  0.50000000  1
  Li  Li84  1  0.00000000  0.00000000  0.14631260  1
  Li  Li85  1  0.00000000  0.00000000  0.85368740  1
  Li  Li86  1  0.94016244  0.05983756  0.50000000  1
  Li  Li87  1  0.94016244  0.88032489  0.50000000  1
  Li  Li88  1  0.11967511  0.05983756  0.50000000  1
  Li  Li89  1  0.67257595  0.74664302  0.10865513  1
  Li  Li90  1  0.25335698  0.92593292  0.10865513  1
  Li  Li91  1  0.07406708  0.32742405  0.10865513  1
  Li  Li92  1  0.25335698  0.32742405  0.89134487  1
  Li  Li93  1  0.07406708  0.74664302  0.89134487  1
  Li  Li94  1  0.67257595  0.92593292  0.89134487  1
  Li  Li95  1  0.26971291  0.23959124  0.43956248  1
  Li  Li96  1  0.76040876  0.03012167  0.43956248  1
  Li  Li97  1  0.96987833  0.73028709  0.43956248  1
  Li  Li98  1  0.76040876  0.73028709  0.56043752  1
  Li  Li99  1  0.96987833  0.23959124  0.56043752  1
  Li  Li100  1  0.26971291  0.03012167  0.56043752  1
  Li  Li101  1  0.84068161  0.99663115  0.07740833  1
  Li  Li102  1  0.00336885  0.84405047  0.07740833  1
  Li  Li103  1  0.15594953  0.15931839  0.07740833  1
  Li  Li104  1  0.00336885  0.15931839  0.92259167  1
  Li  Li105  1  0.15594953  0.99663115  0.92259167  1
  Li  Li106  1  0.84068161  0.84405047  0.92259167  1
  Li  Li107  1  0.45814986  0.54185014  0.50000000  1
  Li  Li108  1  0.45814986  0.91629972  0.50000000  1
  Li  Li109  1  0.08370028  0.54185014  0.50000000  1
