# generated using pymatgen
data_LiF
_symmetry_space_group_name_H-M   'P 1'
_cell_length_a   11.73948621
_cell_length_b   11.73948621
_cell_length_c   5.18042908
_cell_angle_alpha   90.00000000
_cell_angle_beta   90.00000000
_cell_angle_gamma   120.00000000
_symmetry_Int_Tables_number   1
_chemical_formula_structural   LiF
_chemical_formula_sum   'Li36 F36'
_cell_volume   618.29330529
_cell_formula_units_Z   36
loop_
 _symmetry_equiv_pos_site_id
 _symmetry_equiv_pos_as_xyz
  1  'x, y, z'
loop_
 _atom_site_type_symbol
 _atom_site_label
 _atom_site_symmetry_multiplicity
 _atom_site_fract_x
 _atom_site_fract_y
 _atom_site_fract_z
 _atom_site_occupancy
  F  F0  1  0.96596363  0.97344901  0.31426176  1
  F  F1  1  -0.97344901  -0.00748538  0.31426176  1
  F  F2  1  0.00748538  -0.96596363  0.31426176  1
  F  F3  1  0.97344901  0.96596363  0.18573824  1
  F  F4  1  -0.00748538  -0.97344901  0.18573824  1
  F  F5  1  -0.96596363  0.00748538  0.18573824  1
  F  F6  1  -0.96596363  -0.97344901  -0.31426176  1
  F  F7  1  0.97344901  0.00748538  -0.31426176  1
  F  F8  1  -0.00748538  0.96596363  -0.31426176  1
  F  F9  1  -0.97344901  -0.96596363  0.81426176  1
  F  F10  1  0.00748538  0.97344901  0.81426176  1
  F  F11  1  0.96596363  -0.00748538  0.81426176  1
  F  F12  1  1.63263030  1.30678234  0.64759509  1
  F  F13  1  -0.30678234  0.32584795  0.64759509  1
  F  F14  1  0.67415205  -0.63263030  0.64759509  1
  F  F15  1  1.64011568  1.29929696  0.51907157  1
  F  F16  1  0.65918128  -0.64011568  0.51907157  1
  F  F17  1  -0.29929696  0.34081872  0.51907157  1
  F  F18  1  -0.29929696  -0.64011568  0.01907157  1
  F  F19  1  1.64011568  0.34081872  0.01907157  1
  F  F20  1  0.65918128  1.29929696  0.01907157  1
  F  F21  1  -0.30678234  -0.63263030  1.14759509  1
  F  F22  1  0.67415205  1.30678234  1.14759509  1
  F  F23  1  1.63263030  0.32584795  1.14759509  1
  F  F24  1  1.29929696  1.64011568  0.98092843  1
  F  F25  1  -0.64011568  0.65918128  0.98092843  1
  F  F26  1  0.34081872  -0.29929696  0.98092843  1
  F  F27  1  1.30678234  1.63263030  0.85240491  1
  F  F28  1  0.32584795  -0.30678234  0.85240491  1
  F  F29  1  -0.63263030  0.67415205  0.85240491  1
  F  F30  1  -0.63263030  -0.30678234  0.35240491  1
  F  F31  1  1.30678234  0.67415205  0.35240491  1
  F  F32  1  0.32584795  1.63263030  0.35240491  1
  F  F33  1  -0.64011568  -0.29929696  1.48092843  1
  F  F34  1  0.34081872  1.64011568  1.48092843  1
  F  F35  1  1.29929696  0.65918128  1.48092843  1
  Li  Li36  1  0.50000000  0.00000000  0.00000000  1
  Li  Li37  1  0.00000000  0.50000000  0.00000000  1
  Li  Li38  1  0.50000000  0.50000000  0.00000000  1
  Li  Li39  1  0.00000000  0.50000000  0.50000000  1
  Li  Li40  1  0.50000000  0.00000000  0.50000000  1
  Li  Li41  1  0.50000000  0.50000000  0.50000000  1
  Li  Li42  1  0.16666667  0.33333333  0.33333333  1
  Li  Li43  1  0.66666667  0.83333333  0.33333333  1
  Li  Li44  1  0.16666667  0.83333333  0.33333333  1
  Li  Li45  1  0.66666667  0.83333333  0.83333333  1
  Li  Li46  1  0.16666667  0.33333333  0.83333333  1
  Li  Li47  1  0.16666667  0.83333333  0.83333333  1
  Li  Li48  1  0.83333333  0.66666667  0.66666667  1
  Li  Li49  1  0.33333333  0.16666667  0.66666667  1
  Li  Li50  1  0.83333333  0.16666667  0.66666667  1
  Li  Li51  1  0.33333333  0.16666667  0.16666667  1
  Li  Li52  1  0.83333333  0.66666667  0.16666667  1
  Li  Li53  1  0.83333333  0.16666667  0.16666667  1
  Li  Li54  1  0.15981744  0.00000000  0.25000000  1
  Li  Li55  1  0.00000000  0.15981744  0.25000000  1
  Li  Li56  1  0.84018256  0.84018256  0.25000000  1
  Li  Li57  1  0.84018256  0.00000000  0.75000000  1
  Li  Li58  1  0.00000000  0.84018256  0.75000000  1
  Li  Li59  1  0.15981744  0.15981744  0.75000000  1
  Li  Li60  1  0.82648411  0.33333333  0.58333333  1
  Li  Li61  1  0.66666667  0.49315077  0.58333333  1
  Li  Li62  1  0.50684923  0.17351589  0.58333333  1
  Li  Li63  1  0.50684923  0.33333333  0.08333333  1
  Li  Li64  1  0.66666667  0.17351589  0.08333333  1
  Li  Li65  1  0.82648411  0.49315077  0.08333333  1
  Li  Li66  1  0.49315077  0.66666667  0.91666667  1
  Li  Li67  1  0.33333333  0.82648411  0.91666667  1
  Li  Li68  1  0.17351589  0.50684923  0.91666667  1
  Li  Li69  1  0.17351589  0.66666667  0.41666667  1
  Li  Li70  1  0.33333333  0.50684923  0.41666667  1
  Li  Li71  1  0.49315077  0.82648411  0.41666667  1
