# generated using pymatgen
data_Li2Si4Te3F12
_symmetry_space_group_name_H-M   'P 1'
_cell_length_a   9.02792934
_cell_length_b   19.61131989
_cell_length_c   8.40432639
_cell_angle_alpha   90.00000000
_cell_angle_beta   90.00000000
_cell_angle_gamma   90.00000000
_symmetry_Int_Tables_number   1
_chemical_formula_structural   Li2Si4Te3F12
_chemical_formula_sum   'Li8 Si16 Te12 F48'
_cell_volume   1487.98271223
_cell_formula_units_Z   4
loop_
 _symmetry_equiv_pos_site_id
 _symmetry_equiv_pos_as_xyz
  1  'x, y, z'
loop_
 _atom_site_type_symbol
 _atom_site_label
 _atom_site_symmetry_multiplicity
 _atom_site_fract_x
 _atom_site_fract_y
 _atom_site_fract_z
 _atom_site_occupancy
  F  F0  1  0.41717903  0.86397736  0.50000000  1
  F  F1  1  0.58282097  0.13602264  0.50000000  1
  F  F2  1  0.08282097  0.36397736  0.50000000  1
  F  F3  1  0.91717903  0.63602264  0.50000000  1
  F  F4  1  0.00000000  0.50000000  0.75378025  1
  F  F5  1  0.50000000  0.00000000  0.24621975  1
  F  F6  1  0.00000000  0.50000000  0.24621975  1
  F  F7  1  0.50000000  0.00000000  0.75378025  1
  F  F8  1  0.48315312  0.05374726  0.29274467  1
  F  F9  1  0.51684688  0.94625274  0.29274467  1
  F  F10  1  0.01684688  0.55374726  0.70725533  1
  F  F11  1  0.98315312  0.44625274  0.70725533  1
  F  F12  1  0.51684688  0.94625274  0.70725533  1
  F  F13  1  0.48315312  0.05374726  0.70725533  1
  F  F14  1  0.98315312  0.44625274  0.29274467  1
  F  F15  1  0.01684688  0.55374726  0.29274467  1
  F  F16  1  0.00000000  0.00000000  0.00000000  1
  F  F17  1  0.50000000  0.50000000  0.00000000  1
  F  F18  1  0.27882946  0.37209009  0.92223411  1
  F  F19  1  0.72117054  0.62790991  0.92223411  1
  F  F20  1  0.22117054  0.87209009  0.07776589  1
  F  F21  1  0.77882946  0.12790991  0.07776589  1
  F  F22  1  0.72117054  0.62790991  0.07776589  1
  F  F23  1  0.27882946  0.37209009  0.07776589  1
  F  F24  1  0.77882946  0.12790991  0.92223411  1
  F  F25  1  0.22117054  0.87209009  0.92223411  1
  F  F26  1  0.84503605  0.87647493  0.69353366  1
  F  F27  1  0.15496395  0.12352507  0.69353366  1
  F  F28  1  0.65496395  0.37647493  0.30646634  1
  F  F29  1  0.34503605  0.62352507  0.30646634  1
  F  F30  1  0.15496395  0.12352507  0.30646634  1
  F  F31  1  0.84503605  0.87647493  0.30646634  1
  F  F32  1  0.34503605  0.62352507  0.69353366  1
  F  F33  1  0.65496395  0.37647493  0.69353366  1
  F  F34  1  0.94034207  0.12439649  0.00000000  1
  F  F35  1  0.05965793  0.87560351  0.00000000  1
  F  F36  1  0.55965793  0.62439649  0.00000000  1
  F  F37  1  0.44034207  0.37560351  0.00000000  1
  F  F38  1  0.00000000  0.50000000  0.50000000  1
  F  F39  1  0.50000000  0.00000000  0.50000000  1
  F  F40  1  0.61262275  0.81376210  0.50000000  1
  F  F41  1  0.38737725  0.18623790  0.50000000  1
  F  F42  1  0.88737725  0.31376210  0.50000000  1
  F  F43  1  0.11262275  0.68623790  0.50000000  1
  F  F44  1  0.00000000  0.00000000  0.57172909  1
  F  F45  1  0.50000000  0.50000000  0.42827091  1
  F  F46  1  0.00000000  0.00000000  0.42827091  1
  F  F47  1  0.50000000  0.50000000  0.57172909  1
  Li  Li48  1  0.18409605  0.91975396  0.59601212  1
  Li  Li49  1  0.81590395  0.08024604  0.59601212  1
  Li  Li50  1  0.31590395  0.41975396  0.40398788  1
  Li  Li51  1  0.68409605  0.58024604  0.40398788  1
  Li  Li52  1  0.81590395  0.08024604  0.40398788  1
  Li  Li53  1  0.18409605  0.91975396  0.40398788  1
  Li  Li54  1  0.68409605  0.58024604  0.59601212  1
  Li  Li55  1  0.31590395  0.41975396  0.59601212  1
  Si  Si56  1  0.59059362  0.09155627  0.68388059  1
  Si  Si57  1  -0.59059362  -0.09155627  0.68388059  1
  Si  Si58  1  -0.09059362  0.59155627  -0.68388059  1
  Si  Si59  1  1.09059362  0.40844373  -0.68388059  1
  Si  Si60  1  -0.59059362  -0.09155627  -0.68388059  1
  Si  Si61  1  0.59059362  0.09155627  -0.68388059  1
  Si  Si62  1  1.09059362  0.40844373  0.68388059  1
  Si  Si63  1  -0.09059362  0.59155627  0.68388059  1
  Si  Si64  1  0.03352337  0.70492812  0.33814169  1
  Si  Si65  1  0.96647663  0.29507188  0.33814169  1
  Si  Si66  1  0.46647663  0.20492812  0.66185831  1
  Si  Si67  1  0.53352337  0.79507188  0.66185831  1
  Si  Si68  1  0.96647663  0.29507188  0.66185831  1
  Si  Si69  1  0.03352337  0.70492812  0.66185831  1
  Si  Si70  1  0.53352337  0.79507188  0.33814169  1
  Si  Si71  1  0.46647663  0.20492812  0.33814169  1
  Te  Te72  1  0.00000000  0.00000000  0.85233718  1
  Te  Te73  1  0.50000000  0.50000000  0.14766282  1
  Te  Te74  1  0.00000000  0.00000000  0.14766282  1
  Te  Te75  1  0.50000000  0.50000000  0.85233718  1
  Te  Te76  1  0.00000000  0.50000000  0.10651999  1
  Te  Te77  1  0.50000000  0.00000000  0.89348001  1
  Te  Te78  1  0.00000000  0.50000000  0.89348001  1
  Te  Te79  1  0.50000000  0.00000000  0.10651999  1
  Te  Te80  1  0.41214968  0.96378197  0.00000000  1
  Te  Te81  1  0.58785032  0.03621803  0.00000000  1
  Te  Te82  1  0.08785032  0.46378197  0.00000000  1
  Te  Te83  1  0.91214968  0.53621803  0.00000000  1
