# generated using pymatgen
data_LiF
_symmetry_space_group_name_H-M   'P 1'
_cell_length_a   10.20560836
_cell_length_b   5.94222528
_cell_length_c   13.71260774
_cell_angle_alpha   90.00000000
_cell_angle_beta   90.00000000
_cell_angle_gamma   90.00000000
_symmetry_Int_Tables_number   1
_chemical_formula_structural   LiF
_chemical_formula_sum   'Li24 F24'
_cell_volume   831.58771316
_cell_formula_units_Z   24
loop_
 _symmetry_equiv_pos_site_id
 _symmetry_equiv_pos_as_xyz
  1  'x, y, z'
loop_
 _atom_site_type_symbol
 _atom_site_label
 _atom_site_symmetry_multiplicity
 _atom_site_fract_x
 _atom_site_fract_y
 _atom_site_fract_z
 _atom_site_occupancy
  F  F0  1  0.31484037  0.81411729  0.48064230  1
  F  F1  1  0.18515963  -0.81411729  0.98064230  1
  F  F2  1  -0.31484037  1.31411729  -0.48064230  1
  F  F3  1  0.81484037  -0.31411729  0.01935770  1
  F  F4  1  -0.31484037  -0.81411729  -0.48064230  1
  F  F5  1  0.81484037  0.81411729  0.01935770  1
  F  F6  1  0.31484037  -0.31411729  0.48064230  1
  F  F7  1  0.18515963  1.31411729  0.98064230  1
  F  F8  1  0.40109834  0.49155297  0.93609770  1
  F  F9  1  0.09890166  0.50844703  0.43609770  1
  F  F10  1  0.59890166  0.99155297  0.06390230  1
  F  F11  1  0.90109834  0.00844703  0.56390230  1
  F  F12  1  0.59890166  0.50844703  0.06390230  1
  F  F13  1  0.90109834  0.49155297  0.56390230  1
  F  F14  1  0.40109834  0.00844703  0.93609770  1
  F  F15  1  0.09890166  0.99155297  0.43609770  1
  F  F16  1  0.57550828  0.68926277  0.47531583  1
  F  F17  1  0.92449172  0.31073723  0.97531583  1
  F  F18  1  0.42449172  0.18926277  0.52468417  1
  F  F19  1  0.07550828  0.81073723  0.02468417  1
  F  F20  1  0.42449172  0.31073723  0.52468417  1
  F  F21  1  0.07550828  0.68926277  0.02468417  1
  F  F22  1  0.57550828  0.81073723  0.47531583  1
  F  F23  1  0.92449172  0.18926277  0.97531583  1
  Li  Li24  1  0.00000000  0.00000000  0.50000000  1
  Li  Li25  1  0.50000000  0.00000000  0.00000000  1
  Li  Li26  1  0.00000000  0.50000000  0.50000000  1
  Li  Li27  1  0.50000000  0.50000000  0.00000000  1
  Li  Li28  1  0.00000000  0.00000000  0.00000000  1
  Li  Li29  1  0.50000000  0.00000000  0.50000000  1
  Li  Li30  1  0.00000000  0.50000000  0.00000000  1
  Li  Li31  1  0.50000000  0.50000000  0.50000000  1
  Li  Li32  1  0.64923658  0.42780284  0.30367691  1
  Li  Li33  1  0.85076342  0.57219716  0.80367691  1
  Li  Li34  1  0.35076342  0.92780284  0.69632309  1
  Li  Li35  1  0.14923658  0.07219716  0.19632309  1
  Li  Li36  1  0.35076342  0.57219716  0.69632309  1
  Li  Li37  1  0.14923658  0.42780284  0.19632309  1
  Li  Li38  1  0.64923658  0.07219716  0.30367691  1
  Li  Li39  1  0.85076342  0.92780284  0.80367691  1
  Li  Li40  1  0.23783844  0.25000000  0.84679254  1
  Li  Li41  1  0.26216156  0.75000000  0.34679254  1
  Li  Li42  1  0.76216156  0.75000000  0.15320746  1
  Li  Li43  1  0.73783844  0.25000000  0.65320746  1
  Li  Li44  1  0.20795496  0.25000000  0.04075305  1
  Li  Li45  1  0.29204504  0.75000000  0.54075305  1
  Li  Li46  1  0.79204504  0.75000000  0.95924695  1
  Li  Li47  1  0.70795496  0.25000000  0.45924695  1
