# generated using pymatgen
data_LiF
_symmetry_space_group_name_H-M   'P 1'
_cell_length_a   6.21070624
_cell_length_b   6.21070624
_cell_length_c   5.97105285
_cell_angle_alpha   90.00000000
_cell_angle_beta   90.00000000
_cell_angle_gamma   120.00000000
_symmetry_Int_Tables_number   1
_chemical_formula_structural   LiF
_chemical_formula_sum   'Li14 F14'
_cell_volume   199.46354019
_cell_formula_units_Z   14
loop_
 _symmetry_equiv_pos_site_id
 _symmetry_equiv_pos_as_xyz
  1  'x, y, z'
loop_
 _atom_site_type_symbol
 _atom_site_label
 _atom_site_symmetry_multiplicity
 _atom_site_fract_x
 _atom_site_fract_y
 _atom_site_fract_z
 _atom_site_occupancy
  F  F0  1  0.86838042  0.37804430  0.01939159  1
  F  F1  1  -0.37804430  0.49033612  0.01939159  1
  F  F2  1  -0.49033612  -0.86838042  0.01939159  1
  F  F3  1  -0.86838042  -0.37804430  0.51939159  1
  F  F4  1  0.37804430  -0.49033612  0.51939159  1
  F  F5  1  0.49033612  0.86838042  0.51939159  1
  F  F6  1  -0.86838042  -0.37804430  -0.01939159  1
  F  F7  1  0.37804430  -0.49033612  -0.01939159  1
  F  F8  1  0.49033612  0.86838042  -0.01939159  1
  F  F9  1  0.86838042  0.37804430  0.48060841  1
  F  F10  1  -0.37804430  0.49033612  0.48060841  1
  F  F11  1  -0.49033612  -0.86838042  0.48060841  1
  F  F12  1  0.33333333  0.66666667  0.25000000  1
  F  F13  1  0.66666667  0.33333333  0.75000000  1
  Li  Li14  1  0.00000000  0.00000000  0.00000000  1
  Li  Li15  1  0.00000000  0.00000000  0.50000000  1
  Li  Li16  1  0.32258249  0.50237081  0.25000000  1
  Li  Li17  1  0.49762919  0.82021168  0.25000000  1
  Li  Li18  1  0.17978832  0.67741751  0.25000000  1
  Li  Li19  1  0.67741751  0.49762919  0.75000000  1
  Li  Li20  1  0.50237081  0.17978832  0.75000000  1
  Li  Li21  1  0.82021168  0.32258249  0.75000000  1
  Li  Li22  1  0.74623012  0.86139842  0.25000000  1
  Li  Li23  1  0.13860158  0.88483171  0.25000000  1
  Li  Li24  1  0.11516829  0.25376988  0.25000000  1
  Li  Li25  1  0.25376988  0.13860158  0.75000000  1
  Li  Li26  1  0.86139842  0.11516829  0.75000000  1
  Li  Li27  1  0.88483171  0.74623012  0.75000000  1
