# generated using pymatgen
data_Li2Te4MoP2Se
_symmetry_space_group_name_H-M   'P 1'
_cell_length_a   4.85578659
_cell_length_b   5.19375494
_cell_length_c   6.64055351
_cell_angle_alpha   94.37878425
_cell_angle_beta   98.43449572
_cell_angle_gamma   105.78696660
_symmetry_Int_Tables_number   1
_chemical_formula_structural   Li2Te4MoP2Se
_chemical_formula_sum   'Li2 Te4 Mo1 P2 Se1'
_cell_volume   158.21965039
_cell_formula_units_Z   1
loop_
 _symmetry_equiv_pos_site_id
 _symmetry_equiv_pos_as_xyz
  1  'x, y, z'
loop_
 _atom_site_type_symbol
 _atom_site_label
 _atom_site_symmetry_multiplicity
 _atom_site_fract_x
 _atom_site_fract_y
 _atom_site_fract_z
 _atom_site_occupancy
  Se  Se0  1  0.12500000  0.00000000  0.25000000  1
  Te  Te1  1  0.00000000  0.00000000  0.00000000  1
  Te  Te2  1  0.37500000  0.00000000  0.25000000  1
  Te  Te3  1  0.25000000  0.25000000  0.25000000  1
  Te  Te4  1  0.00000000  0.25000000  0.12500000  1
  P  P5  1  0.43670961  0.82232227  0.58027527  1
  P  P6  1  0.88759119  0.62995041  0.15000476  1
  Mo  Mo7  1  0.43418315  0.71151210  0.79271483  1
  Li  Li8  1  0.78552126  0.87472307  0.05802819  1
  Li  Li9  1  0.23570544  0.97077236  0.16237489  1
