# generated using pymatgen
data_Li2Y2Mo2P2Se
_symmetry_space_group_name_H-M   'P 1'
_cell_length_a   4.73859320
_cell_length_b   5.02660716
_cell_length_c   6.29501465
_cell_angle_alpha   93.23651298
_cell_angle_beta   97.21747648
_cell_angle_gamma   102.91327032
_symmetry_Int_Tables_number   1
_chemical_formula_structural   Li2Y2Mo2P2Se
_chemical_formula_sum   'Li2 Y2 Mo2 P2 Se1'
_cell_volume   144.43603050
_cell_formula_units_Z   1
loop_
 _symmetry_equiv_pos_site_id
 _symmetry_equiv_pos_as_xyz
  1  'x, y, z'
loop_
 _atom_site_type_symbol
 _atom_site_label
 _atom_site_symmetry_multiplicity
 _atom_site_fract_x
 _atom_site_fract_y
 _atom_site_fract_z
 _atom_site_occupancy
  Se  Se0  1  0.00000000  0.00000000  0.00000000  1
  Y  Y1  1  0.50000000  0.50000000  0.50000000  1
  Y  Y2  1  0.50000000  0.50000000  0.00000000  1
  P  P3  1  0.50000000  0.00000000  0.50000000  1
  P  P4  1  0.00000000  0.50000000  0.50000000  1
  Mo  Mo5  1  0.98311924  0.52201697  0.84537063  1
  Mo  Mo6  1  0.79358380  0.62900862  0.74207187  1
  Li  Li7  1  0.38575918  0.44183130  0.66826339  1
  Li  Li8  1  0.85715932  0.33414473  0.76335299  1
