# generated using pymatgen
data_Li3Y2As4P3Se
_symmetry_space_group_name_H-M   'P 1'
_cell_length_a   5.40546687
_cell_length_b   5.62188937
_cell_length_c   6.96283362
_cell_angle_alpha   93.12329723
_cell_angle_beta   97.27832144
_cell_angle_gamma   103.12030490
_symmetry_Int_Tables_number   1
_chemical_formula_structural   Li3Y2As4P3Se
_chemical_formula_sum   'Li3 Y2 As4 P3 Se1'
_cell_volume   203.64889692
_cell_formula_units_Z   1
loop_
 _symmetry_equiv_pos_site_id
 _symmetry_equiv_pos_as_xyz
  1  'x, y, z'
loop_
 _atom_site_type_symbol
 _atom_site_label
 _atom_site_symmetry_multiplicity
 _atom_site_fract_x
 _atom_site_fract_y
 _atom_site_fract_z
 _atom_site_occupancy
  Se  Se0  1  0.00000000  0.00000000  0.00000000  1
  P  P1  1  0.50000000  0.50000000  0.50000000  1
  P  P2  1  0.25000000  0.25000000  0.25000000  1
  P  P3  1  0.75000000  0.25000000  0.00000000  1
  As  As4  1  0.25000000  0.75000000  0.50000000  1
  As  As5  1  0.53330824  0.99524107  0.72428240  1
  As  As6  1  0.99741491  0.07132777  0.00985196  1
  As  As7  1  0.99853504  0.95692466  0.85668667  1
  Li  Li8  1  0.40500030  0.10729062  0.28025711  1
  Li  Li9  1  0.69694633  0.31802128  0.27109519  1
  Li  Li10  1  0.05857728  0.47351639  0.41160138  1
  Y  Y11  1  0.06362418  0.76328906  0.24100381  1
  Y  Y12  1  0.84289997  0.71910077  0.84799293  1
