# generated using pymatgen
data_LiF
_symmetry_space_group_name_H-M   'P 1'
_cell_length_a   7.77729404
_cell_length_b   7.77729404
_cell_length_c   12.53081620
_cell_angle_alpha   90.00000000
_cell_angle_beta   90.00000000
_cell_angle_gamma   120.00000000
_symmetry_Int_Tables_number   1
_chemical_formula_structural   LiF
_chemical_formula_sum   'Li28 F28'
_cell_volume   656.39766855
_cell_formula_units_Z   28
loop_
 _symmetry_equiv_pos_site_id
 _symmetry_equiv_pos_as_xyz
  1  'x, y, z'
loop_
 _atom_site_type_symbol
 _atom_site_label
 _atom_site_symmetry_multiplicity
 _atom_site_fract_x
 _atom_site_fract_y
 _atom_site_fract_z
 _atom_site_occupancy
  F  F0  1  0.00000000  0.00000000  0.25000000  1
  F  F1  1  0.00000000  0.00000000  0.75000000  1
  F  F2  1  0.54642712  0.76173832  0.89493509  1
  F  F3  1  -0.76173832  -0.21531120  0.89493509  1
  F  F4  1  0.21531120  -0.54642712  0.89493509  1
  F  F5  1  -0.54642712  -0.76173832  1.39493509  1
  F  F6  1  0.76173832  0.21531120  1.39493509  1
  F  F7  1  -0.21531120  0.54642712  1.39493509  1
  F  F8  1  -0.54642712  -0.76173832  -0.89493509  1
  F  F9  1  0.76173832  0.21531120  -0.89493509  1
  F  F10  1  -0.21531120  0.54642712  -0.89493509  1
  F  F11  1  0.54642712  0.76173832  -0.39493509  1
  F  F12  1  -0.76173832  -0.21531120  -0.39493509  1
  F  F13  1  0.21531120  -0.54642712  -0.39493509  1
  F  F14  1  0.47269857  0.37608211  0.25000000  1
  F  F15  1  0.62391789  0.09661646  0.25000000  1
  F  F16  1  0.90338354  0.52730143  0.25000000  1
  F  F17  1  0.52730143  0.62391789  0.75000000  1
  F  F18  1  0.37608211  0.90338354  0.75000000  1
  F  F19  1  0.09661646  0.47269857  0.75000000  1
  F  F20  1  0.33333333  0.66666667  0.25000000  1
  F  F21  1  0.66666667  0.33333333  0.75000000  1
  F  F22  1  0.77142051  0.43469308  0.25000000  1
  F  F23  1  0.56530692  0.33672743  0.25000000  1
  F  F24  1  0.66327257  0.22857949  0.25000000  1
  F  F25  1  0.22857949  0.56530692  0.75000000  1
  F  F26  1  0.43469308  0.66327257  0.75000000  1
  F  F27  1  0.33672743  0.77142051  0.75000000  1
  Li  Li28  1  0.33333333  0.66666667  0.66762799  1
  Li  Li29  1  0.66666667  0.33333333  0.16762799  1
  Li  Li30  1  0.66666667  0.33333333  0.33237201  1
  Li  Li31  1  0.33333333  0.66666667  0.83237201  1
  Li  Li32  1  0.57243883  0.18616192  0.58143789  1
  Li  Li33  1  0.81383808  0.38627691  0.58143789  1
  Li  Li34  1  0.61372309  0.42756117  0.58143789  1
  Li  Li35  1  0.42756117  0.81383808  0.08143789  1
  Li  Li36  1  0.18616192  0.61372309  0.08143789  1
  Li  Li37  1  0.38627691  0.57243883  0.08143789  1
  Li  Li38  1  0.42756117  0.81383808  0.41856211  1
  Li  Li39  1  0.18616192  0.61372309  0.41856211  1
  Li  Li40  1  0.38627691  0.57243883  0.41856211  1
  Li  Li41  1  0.57243883  0.18616192  0.91856211  1
  Li  Li42  1  0.81383808  0.38627691  0.91856211  1
  Li  Li43  1  0.61372309  0.42756117  0.91856211  1
  Li  Li44  1  0.21138802  0.12910829  0.34252666  1
  Li  Li45  1  0.87089171  0.08227973  0.34252666  1
  Li  Li46  1  0.91772027  0.78861198  0.34252666  1
  Li  Li47  1  0.78861198  0.87089171  0.84252666  1
  Li  Li48  1  0.12910829  0.91772027  0.84252666  1
  Li  Li49  1  0.08227973  0.21138802  0.84252666  1
  Li  Li50  1  0.78861198  0.87089171  0.65747334  1
  Li  Li51  1  0.12910829  0.91772027  0.65747334  1
  Li  Li52  1  0.08227973  0.21138802  0.65747334  1
  Li  Li53  1  0.21138802  0.12910829  0.15747334  1
  Li  Li54  1  0.87089171  0.08227973  0.15747334  1
  Li  Li55  1  0.91772027  0.78861198  0.15747334  1
