# generated using pymatgen
data_LiF
_symmetry_space_group_name_H-M   'P 1'
_cell_length_a   13.49369904
_cell_length_b   16.54402014
_cell_length_c   10.38974185
_cell_angle_alpha   90.00000000
_cell_angle_beta   90.00000000
_cell_angle_gamma   90.00000000
_symmetry_Int_Tables_number   1
_chemical_formula_structural   LiF
_chemical_formula_sum   'Li78 F78'
_cell_volume   2319.40626643
_cell_formula_units_Z   78
loop_
 _symmetry_equiv_pos_site_id
 _symmetry_equiv_pos_as_xyz
  1  'x, y, z'
loop_
 _atom_site_type_symbol
 _atom_site_label
 _atom_site_symmetry_multiplicity
 _atom_site_fract_x
 _atom_site_fract_y
 _atom_site_fract_z
 _atom_site_occupancy
  F  F0  1  0.89102002  0.18262931  0.66569226  1
  F  F1  1  0.10897998  0.81737069  0.66569226  1
  F  F2  1  0.60897998  0.68262931  0.33430774  1
  F  F3  1  0.39102002  0.31737069  0.33430774  1
  F  F4  1  0.10897998  0.81737069  0.33430774  1
  F  F5  1  0.89102002  0.18262931  0.33430774  1
  F  F6  1  0.39102002  0.31737069  0.66569226  1
  F  F7  1  0.60897998  0.68262931  0.66569226  1
  F  F8  1  0.74552129  0.70285795  0.50000000  1
  F  F9  1  0.25447871  0.29714205  0.50000000  1
  F  F10  1  0.75447871  0.20285795  0.50000000  1
  F  F11  1  0.24552129  0.79714205  0.50000000  1
  F  F12  1  0.73660815  0.30329827  0.09806615  1
  F  F13  1  0.26339185  0.69670173  0.09806615  1
  F  F14  1  0.76339185  0.80329827  0.90193385  1
  F  F15  1  0.23660815  0.19670173  0.90193385  1
  F  F16  1  0.26339185  0.69670173  0.90193385  1
  F  F17  1  0.73660815  0.30329827  0.90193385  1
  F  F18  1  0.23660815  0.19670173  0.09806615  1
  F  F19  1  0.76339185  0.80329827  0.09806615  1
  F  F20  1  0.00000000  0.50000000  0.00000000  1
  F  F21  1  0.50000000  0.00000000  0.00000000  1
  F  F22  1  0.68986413  0.99346461  0.17338844  1
  F  F23  1  0.31013587  0.00653539  0.17338844  1
  F  F24  1  0.81013587  0.49346461  0.82661156  1
  F  F25  1  0.18986413  0.50653539  0.82661156  1
  F  F26  1  0.31013587  0.00653539  0.82661156  1
  F  F27  1  0.68986413  0.99346461  0.82661156  1
  F  F28  1  0.18986413  0.50653539  0.17338844  1
  F  F29  1  0.81013587  0.49346461  0.17338844  1
  F  F30  1  0.76669230  0.29062281  0.59938319  1
  F  F31  1  0.23330770  0.70937719  0.59938319  1
  F  F32  1  0.73330770  0.79062281  0.40061681  1
  F  F33  1  0.26669230  0.20937719  0.40061681  1
  F  F34  1  0.23330770  0.70937719  0.40061681  1
  F  F35  1  0.76669230  0.29062281  0.40061681  1
  F  F36  1  0.26669230  0.20937719  0.59938319  1
  F  F37  1  0.73330770  0.79062281  0.59938319  1
  F  F38  1  0.63603303  0.30337206  0.43171661  1
  F  F39  1  0.36396697  0.69662794  0.43171661  1
  F  F40  1  0.86396697  0.80337206  0.56828339  1
  F  F41  1  0.13603303  0.19662794  0.56828339  1
  F  F42  1  0.36396697  0.69662794  0.56828339  1
  F  F43  1  0.63603303  0.30337206  0.56828339  1
  F  F44  1  0.13603303  0.19662794  0.43171661  1
  F  F45  1  0.86396697  0.80337206  0.43171661  1
  F  F46  1  0.80415950  0.54148122  0.10700722  1
  F  F47  1  0.19584050  0.45851878  0.10700722  1
  F  F48  1  0.69584050  0.04148122  0.89299278  1
  F  F49  1  0.30415950  0.95851878  0.89299278  1
  F  F50  1  0.19584050  0.45851878  0.89299278  1
  F  F51  1  0.80415950  0.54148122  0.89299278  1
  F  F52  1  0.30415950  0.95851878  0.10700722  1
  F  F53  1  0.69584050  0.04148122  0.10700722  1
  F  F54  1  0.96835319  0.87144628  0.00000000  1
  F  F55  1  0.03164681  0.12855372  0.00000000  1
  F  F56  1  0.53164681  0.37144628  0.00000000  1
  F  F57  1  0.46835319  0.62855372  -0.00000000  1
  F  F58  1  0.76870561  0.04804647  0.50000000  1
  F  F59  1  0.23129439  0.95195353  0.50000000  1
  F  F60  1  0.73129439  0.54804647  0.50000000  1
  F  F61  1  0.26870561  0.45195353  0.50000000  1
  F  F62  1  0.22660129  0.83049450  0.74726165  1
  F  F63  1  0.77339871  0.16950550  0.74726165  1
  F  F64  1  0.27339871  0.33049450  0.25273835  1
  F  F65  1  0.72660129  0.66950550  0.25273835  1
  F  F66  1  0.77339871  0.16950550  0.25273835  1
  F  F67  1  0.22660129  0.83049450  0.25273835  1
  F  F68  1  0.72660129  0.66950550  0.74726165  1
  F  F69  1  0.27339871  0.33049450  0.74726165  1
  F  F70  1  0.98183866  0.62800036  0.07457356  1
  F  F71  1  0.01816134  0.37199964  0.07457356  1
  F  F72  1  0.51816134  0.12800036  0.92542644  1
  F  F73  1  0.48183866  0.87199964  0.92542644  1
  F  F74  1  0.01816134  0.37199964  0.92542644  1
  F  F75  1  0.98183866  0.62800036  0.92542644  1
  F  F76  1  0.48183866  0.87199964  0.07457356  1
  F  F77  1  0.51816134  0.12800036  0.07457356  1
  Li  Li78  1  0.82623079  0.61463105  0.26572400  1
  Li  Li79  1  -0.82623079  -0.61463105  0.26572400  1
  Li  Li80  1  -0.32623079  1.11463105  -0.26572400  1
  Li  Li81  1  1.32623079  -0.11463105  -0.26572400  1
  Li  Li82  1  -0.82623079  -0.61463105  -0.26572400  1
  Li  Li83  1  0.82623079  0.61463105  -0.26572400  1
  Li  Li84  1  1.32623079  -0.11463105  0.26572400  1
  Li  Li85  1  -0.32623079  1.11463105  0.26572400  1
  Li  Li86  1  0.03317591  0.29341225  0.39368390  1
  Li  Li87  1  0.96682409  0.70658775  0.39368390  1
  Li  Li88  1  0.46682409  0.79341225  0.60631610  1
  Li  Li89  1  0.53317591  0.20658775  0.60631610  1
  Li  Li90  1  0.96682409  0.70658775  0.60631610  1
  Li  Li91  1  0.03317591  0.29341225  0.60631610  1
  Li  Li92  1  0.53317591  0.20658775  0.39368390  1
  Li  Li93  1  0.46682409  0.79341225  0.39368390  1
  Li  Li94  1  0.00000000  0.50000000  0.50000000  1
  Li  Li95  1  0.50000000  0.00000000  0.50000000  1
  Li  Li96  1  0.00000000  0.00000000  0.66631528  1
  Li  Li97  1  0.50000000  0.50000000  0.33368472  1
  Li  Li98  1  0.00000000  0.00000000  0.33368472  1
  Li  Li99  1  0.50000000  0.50000000  0.66631528  1
  Li  Li100  1  0.62306831  0.09004540  0.00000000  1
  Li  Li101  1  0.37693169  0.90995460  0.00000000  1
  Li  Li102  1  0.87693169  0.59004540  -0.00000000  1
  Li  Li103  1  0.12306831  0.40995460  -0.00000000  1
  Li  Li104  1  0.38245077  0.02462711  0.15443233  1
  Li  Li105  1  0.61754923  0.97537289  0.15443233  1
  Li  Li106  1  0.11754923  0.52462711  0.84556767  1
  Li  Li107  1  0.88245077  0.47537289  0.84556767  1
  Li  Li108  1  0.61754923  0.97537289  0.84556767  1
  Li  Li109  1  0.38245077  0.02462711  0.84556767  1
  Li  Li110  1  0.88245077  0.47537289  0.15443233  1
  Li  Li111  1  0.11754923  0.52462711  0.15443233  1
  Li  Li112  1  0.67314359  0.22788719  0.00000000  1
  Li  Li113  1  0.32685641  0.77211281  0.00000000  1
  Li  Li114  1  0.82685641  0.72788719  0.00000000  1
  Li  Li115  1  0.17314359  0.27211281  -0.00000000  1
  Li  Li116  1  0.07531197  0.67643335  0.78050636  1
  Li  Li117  1  0.92468803  0.32356665  0.78050636  1
  Li  Li118  1  0.42468803  0.17643335  0.21949364  1
  Li  Li119  1  0.57531197  0.82356665  0.21949364  1
  Li  Li120  1  0.92468803  0.32356665  0.21949364  1
  Li  Li121  1  0.07531197  0.67643335  0.21949364  1
  Li  Li122  1  0.57531197  0.82356665  0.78050636  1
  Li  Li123  1  0.42468803  0.17643335  0.78050636  1
  Li  Li124  1  0.96111939  0.10531345  0.31079943  1
  Li  Li125  1  0.03888061  0.89468655  0.31079943  1
  Li  Li126  1  0.53888061  0.60531345  0.68920057  1
  Li  Li127  1  0.46111939  0.39468655  0.68920057  1
  Li  Li128  1  0.03888061  0.89468655  0.68920057  1
  Li  Li129  1  0.96111939  0.10531345  0.68920057  1
  Li  Li130  1  0.46111939  0.39468655  0.31079943  1
  Li  Li131  1  0.53888061  0.60531345  0.31079943  1
  Li  Li132  1  0.00000000  0.00000000  0.00000000  1
  Li  Li133  1  0.50000000  0.50000000  0.00000000  1
  Li  Li134  1  0.87814793  0.75674201  0.70514536  1
  Li  Li135  1  0.12185207  0.24325799  0.70514536  1
  Li  Li136  1  0.62185207  0.25674201  0.29485464  1
  Li  Li137  1  0.37814793  0.74325799  0.29485464  1
  Li  Li138  1  0.12185207  0.24325799  0.29485464  1
  Li  Li139  1  0.87814793  0.75674201  0.29485464  1
  Li  Li140  1  0.37814793  0.74325799  0.70514536  1
  Li  Li141  1  0.62185207  0.25674201  0.70514536  1
  Li  Li142  1  0.00000000  0.50000000  0.62818992  1
  Li  Li143  1  0.50000000  0.00000000  0.37181008  1
  Li  Li144  1  0.00000000  0.50000000  0.37181008  1
  Li  Li145  1  0.50000000  0.00000000  0.62818992  1
  Li  Li146  1  0.59833544  0.06181101  0.16510155  1
  Li  Li147  1  0.40166456  0.93818899  0.16510155  1
  Li  Li148  1  0.90166456  0.56181101  0.83489845  1
  Li  Li149  1  0.09833544  0.43818899  0.83489845  1
  Li  Li150  1  0.40166456  0.93818899  0.83489845  1
  Li  Li151  1  0.59833544  0.06181101  0.83489845  1
  Li  Li152  1  0.09833544  0.43818899  0.16510155  1
  Li  Li153  1  0.90166456  0.56181101  0.16510155  1
  Li  Li154  1  0.00000000  0.00000000  0.50000000  1
  Li  Li155  1  0.50000000  0.50000000  0.50000000  1
