# generated using pymatgen
data_LiF
_symmetry_space_group_name_H-M   'P 1'
_cell_length_a   7.68650415
_cell_length_b   12.58857423
_cell_length_c   12.87181909
_cell_angle_alpha   90.00000000
_cell_angle_beta   90.00000000
_cell_angle_gamma   90.00000000
_symmetry_Int_Tables_number   1
_chemical_formula_structural   LiF
_chemical_formula_sum   'Li88 F88'
_cell_volume   1245.50460862
_cell_formula_units_Z   88
loop_
 _symmetry_equiv_pos_site_id
 _symmetry_equiv_pos_as_xyz
  1  'x, y, z'
loop_
 _atom_site_type_symbol
 _atom_site_label
 _atom_site_symmetry_multiplicity
 _atom_site_fract_x
 _atom_site_fract_y
 _atom_site_fract_z
 _atom_site_occupancy
  F  F0  1  0.00000000  0.00000000  0.00000000  1
  F  F1  1  0.50000000  0.50000000  -0.00000000  1
  F  F2  1  0.74585821  0.30789971  0.58141358  1
  F  F3  1  0.25414179  0.69210029  0.58141358  1
  F  F4  1  0.75414179  0.80789971  0.41858642  1
  F  F5  1  0.24585821  0.19210029  0.41858642  1
  F  F6  1  0.25414179  0.69210029  0.41858642  1
  F  F7  1  0.74585821  0.30789971  0.41858642  1
  F  F8  1  0.24585821  0.19210029  0.58141358  1
  F  F9  1  0.75414179  0.80789971  0.58141358  1
  F  F10  1  0.88912685  0.20556460  0.25837968  1
  F  F11  1  0.11087315  0.79443540  0.25837968  1
  F  F12  1  0.61087315  0.70556460  0.74162032  1
  F  F13  1  0.38912685  0.29443540  0.74162032  1
  F  F14  1  0.11087315  0.79443540  0.74162032  1
  F  F15  1  0.88912685  0.20556460  0.74162032  1
  F  F16  1  0.38912685  0.29443540  0.25837968  1
  F  F17  1  0.61087315  0.70556460  0.25837968  1
  F  F18  1  0.55625399  0.48695148  0.81685516  1
  F  F19  1  0.44374601  0.51304852  0.81685516  1
  F  F20  1  0.94374601  0.98695148  0.18314484  1
  F  F21  1  0.05625399  0.01304852  0.18314484  1
  F  F22  1  0.44374601  0.51304852  0.18314484  1
  F  F23  1  0.55625399  0.48695148  0.18314484  1
  F  F24  1  0.05625399  0.01304852  0.81685516  1
  F  F25  1  0.94374601  0.98695148  0.81685516  1
  F  F26  1  0.89490400  0.40692423  0.66383192  1
  F  F27  1  0.10509600  0.59307577  0.66383192  1
  F  F28  1  0.60509600  0.90692423  0.33616808  1
  F  F29  1  0.39490400  0.09307577  0.33616808  1
  F  F30  1  0.10509600  0.59307577  0.33616808  1
  F  F31  1  0.89490400  0.40692423  0.33616808  1
  F  F32  1  0.39490400  0.09307577  0.66383192  1
  F  F33  1  0.60509600  0.90692423  0.66383192  1
  F  F34  1  0.44501578  0.27456585  0.50000000  1
  F  F35  1  0.55498422  0.72543415  0.50000000  1
  F  F36  1  0.05498422  0.77456585  0.50000000  1
  F  F37  1  0.94501578  0.22543415  0.50000000  1
  F  F38  1  0.50497079  0.21066600  0.63338522  1
  F  F39  1  0.49502921  0.78933400  0.63338522  1
  F  F40  1  0.99502921  0.71066600  0.36661478  1
  F  F41  1  0.00497079  0.28933400  0.36661478  1
  F  F42  1  0.49502921  0.78933400  0.36661478  1
  F  F43  1  0.50497079  0.21066600  0.36661478  1
  F  F44  1  0.00497079  0.28933400  0.63338522  1
  F  F45  1  0.99502921  0.71066600  0.63338522  1
  F  F46  1  0.90497733  0.67985762  -0.00000000  1
  F  F47  1  0.09502267  0.32014238  -0.00000000  1
  F  F48  1  0.59502267  0.17985762  -0.00000000  1
  F  F49  1  0.40497733  0.82014238  -0.00000000  1
  F  F50  1  0.38331716  0.68068948  0.69574134  1
  F  F51  1  0.61668284  0.31931052  0.69574134  1
  F  F52  1  0.11668284  0.18068948  0.30425866  1
  F  F53  1  0.88331716  0.81931052  0.30425866  1
  F  F54  1  0.61668284  0.31931052  0.30425866  1
  F  F55  1  0.38331716  0.68068948  0.30425866  1
  F  F56  1  0.88331716  0.81931052  0.69574134  1
  F  F57  1  0.11668284  0.18068948  0.69574134  1
  F  F58  1  0.00000000  0.00000000  0.50000000  1
  F  F59  1  0.50000000  0.50000000  0.50000000  1
  F  F60  1  0.55039884  0.58214863  0.58643949  1
  F  F61  1  0.44960116  0.41785137  0.58643949  1
  F  F62  1  0.94960116  0.08214863  0.41356051  1
  F  F63  1  0.05039884  0.91785137  0.41356051  1
  F  F64  1  0.44960116  0.41785137  0.41356051  1
  F  F65  1  0.55039884  0.58214863  0.41356051  1
  F  F66  1  0.05039884  0.91785137  0.58643949  1
  F  F67  1  0.94960116  0.08214863  0.58643949  1
  F  F68  1  0.22211797  0.11734747  0.77583412  1
  F  F69  1  0.77788203  0.88265253  0.77583412  1
  F  F70  1  0.27788203  0.61734747  0.22416588  1
  F  F71  1  0.72211797  0.38265253  0.22416588  1
  F  F72  1  0.77788203  0.88265253  0.22416588  1
  F  F73  1  0.22211797  0.11734747  0.22416588  1
  F  F74  1  0.72211797  0.38265253  0.77583412  1
  F  F75  1  0.27788203  0.61734747  0.77583412  1
  F  F76  1  0.13768267  0.04557959  -0.00000000  1
  F  F77  1  0.86231733  0.95442041  -0.00000000  1
  F  F78  1  0.36231733  0.54557959  -0.00000000  1
  F  F79  1  0.63768267  0.45442041  0.00000000  1
  F  F80  1  0.87987636  0.43981757  0.84084654  1
  F  F81  1  0.12012364  0.56018243  0.84084654  1
  F  F82  1  0.62012364  0.93981757  0.15915346  1
  F  F83  1  0.37987636  0.06018243  0.15915346  1
  F  F84  1  0.12012364  0.56018243  0.15915346  1
  F  F85  1  0.87987636  0.43981757  0.15915346  1
  F  F86  1  0.37987636  0.06018243  0.84084654  1
  F  F87  1  0.62012364  0.93981757  0.84084654  1
  Li  Li88  1  0.96390042  0.13802680  0.50000000  1
  Li  Li89  1  0.03609958  0.86197320  0.50000000  1
  Li  Li90  1  0.53609958  0.63802680  0.50000000  1
  Li  Li91  1  0.46390042  0.36197320  0.50000000  1
  Li  Li92  1  0.00000000  0.50000000  -0.00000000  1
  Li  Li93  1  0.50000000  -0.00000000  -0.00000000  1
  Li  Li94  1  0.00000000  0.50000000  0.50000000  1
  Li  Li95  1  0.50000000  -0.00000000  0.50000000  1
  Li  Li96  1  0.34961684  0.19471135  0.11201471  1
  Li  Li97  1  -0.34961684  -0.19471135  0.11201471  1
  Li  Li98  1  0.15038316  0.69471135  -0.11201471  1
  Li  Li99  1  0.84961684  0.30528865  -0.11201471  1
  Li  Li100  1  -0.34961684  -0.19471135  -0.11201471  1
  Li  Li101  1  0.34961684  0.19471135  -0.11201471  1
  Li  Li102  1  0.84961684  0.30528865  0.11201471  1
  Li  Li103  1  0.15038316  0.69471135  0.11201471  1
  Li  Li104  1  0.00000000  0.00000000  0.34369302  1
  Li  Li105  1  0.50000000  0.50000000  0.65630698  1
  Li  Li106  1  0.00000000  0.00000000  0.65630698  1
  Li  Li107  1  0.50000000  0.50000000  0.34369302  1
  Li  Li108  1  0.07525843  0.33890764  0.50000000  1
  Li  Li109  1  0.92474157  0.66109236  0.50000000  1
  Li  Li110  1  0.42474157  0.83890764  0.50000000  1
  Li  Li111  1  0.57525843  0.16109236  0.50000000  1
  Li  Li112  1  0.20589100  0.53128995  -0.00000000  1
  Li  Li113  1  0.79410900  0.46871005  -0.00000000  1
  Li  Li114  1  0.29410900  0.03128995  -0.00000000  1
  Li  Li115  1  0.70589100  0.96871005  0.00000000  1
  Li  Li116  1  0.49774260  0.62135541  0.18628273  1
  Li  Li117  1  0.50225740  0.37864459  0.18628273  1
  Li  Li118  1  0.00225740  0.12135541  0.81371727  1
  Li  Li119  1  0.99774260  0.87864459  0.81371727  1
  Li  Li120  1  0.50225740  0.37864459  0.81371727  1
  Li  Li121  1  0.49774260  0.62135541  0.81371727  1
  Li  Li122  1  0.99774260  0.87864459  0.18628273  1
  Li  Li123  1  0.00225740  0.12135541  0.18628273  1
  Li  Li124  1  0.14109930  0.28574047  0.60242874  1
  Li  Li125  1  0.85890070  0.71425953  0.60242874  1
  Li  Li126  1  0.35890070  0.78574047  0.39757126  1
  Li  Li127  1  0.64109930  0.21425953  0.39757126  1
  Li  Li128  1  0.85890070  0.71425953  0.39757126  1
  Li  Li129  1  0.14109930  0.28574047  0.39757126  1
  Li  Li130  1  0.64109930  0.21425953  0.60242874  1
  Li  Li131  1  0.35890070  0.78574047  0.60242874  1
  Li  Li132  1  0.10593773  0.74746759  0.33379229  1
  Li  Li133  1  0.89406227  0.25253241  0.33379229  1
  Li  Li134  1  0.39406227  0.24746759  0.66620771  1
  Li  Li135  1  0.60593773  0.75253241  0.66620771  1
  Li  Li136  1  0.89406227  0.25253241  0.66620771  1
  Li  Li137  1  0.10593773  0.74746759  0.66620771  1
  Li  Li138  1  0.60593773  0.75253241  0.33379229  1
  Li  Li139  1  0.39406227  0.24746759  0.33379229  1
  Li  Li140  1  0.67283768  0.33760698  0.08799765  1
  Li  Li141  1  0.32716232  0.66239302  0.08799765  1
  Li  Li142  1  0.82716232  0.83760698  0.91200235  1
  Li  Li143  1  0.17283768  0.16239302  0.91200235  1
  Li  Li144  1  0.32716232  0.66239302  0.91200235  1
  Li  Li145  1  0.67283768  0.33760698  0.91200235  1
  Li  Li146  1  0.17283768  0.16239302  0.08799765  1
  Li  Li147  1  0.82716232  0.83760698  0.08799765  1
  Li  Li148  1  0.72096316  0.49617259  0.42806026  1
  Li  Li149  1  0.27903684  0.50382741  0.42806026  1
  Li  Li150  1  0.77903684  0.99617259  0.57193974  1
  Li  Li151  1  0.22096316  0.00382741  0.57193974  1
  Li  Li152  1  0.27903684  0.50382741  0.57193974  1
  Li  Li153  1  0.72096316  0.49617259  0.57193974  1
  Li  Li154  1  0.22096316  0.00382741  0.42806026  1
  Li  Li155  1  0.77903684  0.99617259  0.42806026  1
  Li  Li156  1  0.50201578  0.91875303  0.16172945  1
  Li  Li157  1  0.49798422  0.08124697  0.16172945  1
  Li  Li158  1  0.99798422  0.41875303  0.83827055  1
  Li  Li159  1  0.00201578  0.58124697  0.83827055  1
  Li  Li160  1  0.49798422  0.08124697  0.83827055  1
  Li  Li161  1  0.50201578  0.91875303  0.83827055  1
  Li  Li162  1  0.00201578  0.58124697  0.16172945  1
  Li  Li163  1  0.99798422  0.41875303  0.16172945  1
  Li  Li164  1  0.81771493  0.60658058  0.28565081  1
  Li  Li165  1  0.18228507  0.39341942  0.28565081  1
  Li  Li166  1  0.68228507  0.10658058  0.71434919  1
  Li  Li167  1  0.31771493  0.89341942  0.71434919  1
  Li  Li168  1  0.18228507  0.39341942  0.71434919  1
  Li  Li169  1  0.81771493  0.60658058  0.71434919  1
  Li  Li170  1  0.31771493  0.89341942  0.28565081  1
  Li  Li171  1  0.68228507  0.10658058  0.28565081  1
  Li  Li172  1  0.73470894  0.60645211  0.50000000  1
  Li  Li173  1  0.26529106  0.39354789  0.50000000  1
  Li  Li174  1  0.76529106  0.10645211  0.50000000  1
  Li  Li175  1  0.23470894  0.89354789  0.50000000  1
