# generated using pymatgen
data_Li2Y2As4P3
_symmetry_space_group_name_H-M   'P 1'
_cell_length_a   4.74622474
_cell_length_b   4.85127470
_cell_length_c   6.87150090
_cell_angle_alpha   95.15746155
_cell_angle_beta   101.23187905
_cell_angle_gamma   110.71547326
_symmetry_Int_Tables_number   1
_chemical_formula_structural   Li2Y2As4P3
_chemical_formula_sum   'Li2 Y2 As4 P3'
_cell_volume   142.96370953
_cell_formula_units_Z   1
loop_
 _symmetry_equiv_pos_site_id
 _symmetry_equiv_pos_as_xyz
  1  'x, y, z'
loop_
 _atom_site_type_symbol
 _atom_site_label
 _atom_site_symmetry_multiplicity
 _atom_site_fract_x
 _atom_site_fract_y
 _atom_site_fract_z
 _atom_site_occupancy
  Y  Y0  1  0.00000000  0.00000000  0.00000000  1
  Y  Y1  1  0.50000000  0.50000000  0.50000000  1
  P  P2  1  0.50000000  0.50000000  0.00000000  1
  P  P3  1  0.50000000  0.00000000  0.50000000  1
  P  P4  1  0.00000000  0.50000000  0.50000000  1
  As  As5  1  0.24612995  0.96330129  0.98797107  1
  As  As6  1  0.42495005  0.40635417  0.88029290  1
  As  As7  1  0.17141096  0.15804634  0.18919760  1
  As  As8  1  0.79743429  0.18069830  0.59489799  1
  Li  Li9  1  0.04550529  0.41435949  0.77518112  1
  Li  Li10  1  0.66657351  0.45931663  0.05558490  1
