# generated using pymatgen
data_LiF
_symmetry_space_group_name_H-M   'P 1'
_cell_length_a   5.42194928
_cell_length_b   8.94463270
_cell_length_c   11.89350234
_cell_angle_alpha   90.00000000
_cell_angle_beta   90.00000000
_cell_angle_gamma   90.00000000
_symmetry_Int_Tables_number   1
_chemical_formula_structural   LiF
_chemical_formula_sum   'Li24 F24'
_cell_volume   576.80328403
_cell_formula_units_Z   24
loop_
 _symmetry_equiv_pos_site_id
 _symmetry_equiv_pos_as_xyz
  1  'x, y, z'
loop_
 _atom_site_type_symbol
 _atom_site_label
 _atom_site_symmetry_multiplicity
 _atom_site_fract_x
 _atom_site_fract_y
 _atom_site_fract_z
 _atom_site_occupancy
  F  F0  1  0.82543122  0.31059903  0.43711721  1
  F  F1  1  0.67456878  0.68940097  0.93711721  1
  F  F2  1  0.17456878  0.81059903  0.56288279  1
  F  F3  1  0.32543122  0.18940097  0.06288279  1
  F  F4  1  0.17456878  0.68940097  0.56288279  1
  F  F5  1  0.32543122  0.31059903  0.06288279  1
  F  F6  1  0.82543122  0.18940097  0.43711721  1
  F  F7  1  0.67456878  0.81059903  0.93711721  1
  F  F8  1  0.84510981  0.37826298  0.55708298  1
  F  F9  1  0.65489019  0.62173702  0.05708298  1
  F  F10  1  0.15489019  0.87826298  0.44291702  1
  F  F11  1  0.34510981  0.12173702  0.94291702  1
  F  F12  1  0.15489019  0.62173702  0.44291702  1
  F  F13  1  0.34510981  0.37826298  0.94291702  1
  F  F14  1  0.84510981  0.12173702  0.55708298  1
  F  F15  1  0.65489019  0.87826298  0.05708298  1
  F  F16  1  0.00000000  0.00000000  0.50000000  1
  F  F17  1  0.50000000  0.00000000  0.00000000  1
  F  F18  1  0.00000000  0.50000000  0.50000000  1
  F  F19  1  0.50000000  0.50000000  0.00000000  1
  F  F20  1  0.28390505  0.25000000  0.54108059  1
  F  F21  1  0.21609495  0.75000000  0.04108059  1
  F  F22  1  0.71609495  0.75000000  0.45891941  1
  F  F23  1  0.78390505  0.25000000  0.95891941  1
  Li  Li24  1  0.60187634  0.36120610  0.13213313  1
  Li  Li25  1  -0.10187634  -0.36120610  0.63213313  1
  Li  Li26  1  -0.60187634  0.86120610  -0.13213313  1
  Li  Li27  1  1.10187634  0.13879390  0.36786687  1
  Li  Li28  1  -0.60187634  -0.36120610  -0.13213313  1
  Li  Li29  1  1.10187634  0.36120610  0.36786687  1
  Li  Li30  1  0.60187634  0.13879390  0.13213313  1
  Li  Li31  1  -0.10187634  0.86120610  0.63213313  1
  Li  Li32  1  0.56221230  0.00284291  0.29323278  1
  Li  Li33  1  0.93778770  0.99715709  0.79323278  1
  Li  Li34  1  0.43778770  0.50284291  0.70676722  1
  Li  Li35  1  0.06221230  0.49715709  0.20676722  1
  Li  Li36  1  0.43778770  0.99715709  0.70676722  1
  Li  Li37  1  0.06221230  0.00284291  0.20676722  1
  Li  Li38  1  0.56221230  0.49715709  0.29323278  1
  Li  Li39  1  0.93778770  0.50284291  0.79323278  1
  Li  Li40  1  0.15272267  0.06071448  0.93230633  1
  Li  Li41  1  0.34727733  0.93928552  0.43230633  1
  Li  Li42  1  0.84727733  0.56071448  0.06769367  1
  Li  Li43  1  0.65272267  0.43928552  0.56769367  1
  Li  Li44  1  0.84727733  0.93928552  0.06769367  1
  Li  Li45  1  0.65272267  0.06071448  0.56769367  1
  Li  Li46  1  0.15272267  0.43928552  0.93230633  1
  Li  Li47  1  0.34727733  0.56071448  0.43230633  1
