# generated using pymatgen
data_LiF
_symmetry_space_group_name_H-M   'P 1'
_cell_length_a   10.94017988
_cell_length_b   10.94017988
_cell_length_c   7.16355400
_cell_angle_alpha   90.00000000
_cell_angle_beta   90.00000000
_cell_angle_gamma   90.00000000
_symmetry_Int_Tables_number   1
_chemical_formula_structural   LiF
_chemical_formula_sum   'Li36 F36'
_cell_volume   857.38812673
_cell_formula_units_Z   36
loop_
 _symmetry_equiv_pos_site_id
 _symmetry_equiv_pos_as_xyz
  1  'x, y, z'
loop_
 _atom_site_type_symbol
 _atom_site_label
 _atom_site_symmetry_multiplicity
 _atom_site_fract_x
 _atom_site_fract_y
 _atom_site_fract_z
 _atom_site_occupancy
  F  F0  1  0.00000000  0.00000000  0.00000000  1
  F  F1  1  0.50000000  0.00000000  0.50000000  1
  F  F2  1  0.25000000  0.75000000  0.25000000  1
  F  F3  1  0.25000000  0.25000000  0.75000000  1
  F  F4  1  0.50000000  0.50000000  0.50000000  1
  F  F5  1  0.00000000  0.50000000  0.00000000  1
  F  F6  1  0.75000000  0.25000000  0.75000000  1
  F  F7  1  0.75000000  0.75000000  0.25000000  1
  F  F8  1  0.20217478  0.45217478  0.87500000  1
  F  F9  1  0.29782522  0.54782522  0.37500000  1
  F  F10  1  -0.20217478  0.95217478  0.12500000  1
  F  F11  1  0.70217478  0.04782522  0.62500000  1
  F  F12  1  -0.20217478  0.54782522  0.12500000  1
  F  F13  1  0.70217478  0.45217478  0.62500000  1
  F  F14  1  0.20217478  0.04782522  0.87500000  1
  F  F15  1  0.29782522  0.95217478  0.37500000  1
  F  F16  1  0.70217478  0.95217478  1.37500000  1
  F  F17  1  0.79782522  1.04782522  0.87500000  1
  F  F18  1  0.29782522  1.45217478  0.62500000  1
  F  F19  1  1.20217478  0.54782522  1.12500000  1
  F  F20  1  0.29782522  1.04782522  0.62500000  1
  F  F21  1  1.20217478  0.95217478  1.12500000  1
  F  F22  1  0.70217478  0.54782522  1.37500000  1
  F  F23  1  0.79782522  1.45217478  0.87500000  1
  F  F24  1  0.00000000  0.75000000  0.12500000  1
  F  F25  1  0.50000000  0.75000000  0.37500000  1
  F  F26  1  0.50000000  0.25000000  0.62500000  1
  F  F27  1  0.00000000  0.25000000  0.87500000  1
  F  F28  1  0.00000000  0.00000000  0.50000000  1
  F  F29  1  0.50000000  0.00000000  0.00000000  1
  F  F30  1  0.25000000  0.75000000  0.75000000  1
  F  F31  1  0.25000000  0.25000000  0.25000000  1
  F  F32  1  0.50000000  0.50000000  0.00000000  1
  F  F33  1  0.00000000  0.50000000  0.50000000  1
  F  F34  1  0.75000000  0.25000000  0.25000000  1
  F  F35  1  0.75000000  0.75000000  0.75000000  1
  Li  Li36  1  0.00000000  0.88200307  0.39738563  1
  Li  Li37  1  0.50000000  0.11799693  0.89738563  1
  Li  Li38  1  0.36799693  0.75000000  0.64738563  1
  Li  Li39  1  0.13200307  0.25000000  0.14738563  1
  Li  Li40  1  0.50000000  0.88200307  0.10261437  1
  Li  Li41  1  0.00000000  0.11799693  0.60261437  1
  Li  Li42  1  0.13200307  0.75000000  0.85261437  1
  Li  Li43  1  0.36799693  0.25000000  0.35261437  1
  Li  Li44  1  0.50000000  0.38200307  0.89738563  1
  Li  Li45  1  0.00000000  0.61799693  0.39738563  1
  Li  Li46  1  0.86799693  0.25000000  0.14738563  1
  Li  Li47  1  0.63200307  0.75000000  0.64738563  1
  Li  Li48  1  0.00000000  0.38200307  0.60261437  1
  Li  Li49  1  0.50000000  0.61799693  0.10261437  1
  Li  Li50  1  0.63200307  0.25000000  0.35261437  1
  Li  Li51  1  0.86799693  0.75000000  0.85261437  1
  Li  Li52  1  0.00000000  0.84031303  0.01883043  1
  Li  Li53  1  0.50000000  0.15968697  0.51883043  1
  Li  Li54  1  0.40968697  0.75000000  0.26883043  1
  Li  Li55  1  0.09031303  0.25000000  0.76883043  1
  Li  Li56  1  0.50000000  0.84031303  0.48116957  1
  Li  Li57  1  0.00000000  0.15968697  0.98116957  1
  Li  Li58  1  0.09031303  0.75000000  0.23116957  1
  Li  Li59  1  0.40968697  0.25000000  0.73116957  1
  Li  Li60  1  0.50000000  0.34031303  0.51883043  1
  Li  Li61  1  0.00000000  0.65968697  0.01883043  1
  Li  Li62  1  0.90968697  0.25000000  0.76883043  1
  Li  Li63  1  0.59031303  0.75000000  0.26883043  1
  Li  Li64  1  0.00000000  0.34031303  0.98116957  1
  Li  Li65  1  0.50000000  0.65968697  0.48116957  1
  Li  Li66  1  0.59031303  0.25000000  0.73116957  1
  Li  Li67  1  0.90968697  0.75000000  0.23116957  1
  Li  Li68  1  0.00000000  0.25000000  0.37500000  1
  Li  Li69  1  0.00000000  0.75000000  0.62500000  1
  Li  Li70  1  0.50000000  0.75000000  0.87500000  1
  Li  Li71  1  0.50000000  0.25000000  0.12500000  1
