# generated using pymatgen
data_Li2Y2Mo2P3Se
_symmetry_space_group_name_H-M   'P 1'
_cell_length_a   4.88870004
_cell_length_b   5.25545032
_cell_length_c   6.63399472
_cell_angle_alpha   93.36142006
_cell_angle_beta   97.70736812
_cell_angle_gamma   103.81667285
_symmetry_Int_Tables_number   1
_chemical_formula_structural   Li2Y2Mo2P3Se
_chemical_formula_sum   'Li2 Y2 Mo2 P3 Se1'
_cell_volume   163.28612702
_cell_formula_units_Z   1
loop_
 _symmetry_equiv_pos_site_id
 _symmetry_equiv_pos_as_xyz
  1  'x, y, z'
loop_
 _atom_site_type_symbol
 _atom_site_label
 _atom_site_symmetry_multiplicity
 _atom_site_fract_x
 _atom_site_fract_y
 _atom_site_fract_z
 _atom_site_occupancy
  Se  Se0  1  0.00000000  0.00000000  0.00000000  1
  Y  Y1  1  0.50000000  0.50000000  0.50000000  1
  Y  Y2  1  0.50000000  0.50000000  0.00000000  1
  P  P3  1  0.50000000  0.00000000  0.50000000  1
  P  P4  1  0.00000000  0.50000000  0.50000000  1
  P  P5  1  0.45150051  0.18967028  0.58785257  1
  Mo  Mo6  1  0.41759622  0.74101822  0.73933396  1
  Mo  Mo7  1  0.16400756  0.35792148  0.72733859  1
  Li  Li8  1  0.78322830  0.40676768  0.73138746  1
  Li  Li9  1  0.95495204  0.60635778  0.40562494  1
