# generated using pymatgen
data_Li2CaSeF2
_symmetry_space_group_name_H-M   'P 1'
_cell_length_a   12.59895426
_cell_length_b   4.60008537
_cell_length_c   6.85261177
_cell_angle_alpha   90.00000000
_cell_angle_beta   90.00000000
_cell_angle_gamma   90.00000000
_symmetry_Int_Tables_number   1
_chemical_formula_structural   Li2CaSeF2
_chemical_formula_sum   'Li8 Ca4 Se4 F8'
_cell_volume   397.15178462
_cell_formula_units_Z   4
loop_
 _symmetry_equiv_pos_site_id
 _symmetry_equiv_pos_as_xyz
  1  'x, y, z'
loop_
 _atom_site_type_symbol
 _atom_site_label
 _atom_site_symmetry_multiplicity
 _atom_site_fract_x
 _atom_site_fract_y
 _atom_site_fract_z
 _atom_site_occupancy
  Ca  Ca0  1  0.45491337  0.25000000  0.07043996  1
  Ca  Ca1  1  0.04508663  0.75000000  0.57043996  1
  Ca  Ca2  1  0.54508663  0.75000000  0.92956004  1
  Ca  Ca3  1  0.95491337  0.25000000  0.42956004  1
  F  F4  1  0.05353689  0.25000000  0.90378690  1
  F  F5  1  0.44646311  0.75000000  0.40378690  1
  F  F6  1  0.94646311  0.75000000  0.09621310  1
  F  F7  1  0.55353689  0.25000000  0.59621310  1
  F  F8  1  0.00000000  0.00000000  0.50000000  1
  F  F9  1  0.50000000  0.00000000  0.00000000  1
  F  F10  1  0.00000000  0.50000000  0.50000000  1
  F  F11  1  0.50000000  0.50000000  -0.00000000  1
  Li  Li12  1  0.68600720  0.50800583  0.46786067  1
  Li  Li13  1  -0.18600720  -0.50800583  0.96786067  1
  Li  Li14  1  -0.68600720  1.00800583  -0.46786067  1
  Li  Li15  1  1.18600720  -0.00800583  0.03213933  1
  Li  Li16  1  -0.68600720  -0.50800583  -0.46786067  1
  Li  Li17  1  1.18600720  0.50800583  0.03213933  1
  Li  Li18  1  0.68600720  -0.00800583  0.46786067  1
  Li  Li19  1  -0.18600720  1.00800583  0.96786067  1
  Se  Se20  1  0.00000000  0.00000000  0.00000000  1
  Se  Se21  1  0.50000000  0.00000000  0.50000000  1
  Se  Se22  1  0.00000000  0.50000000  0.00000000  1
  Se  Se23  1  0.50000000  0.50000000  0.50000000  1
