# generated using pymatgen
data_LiCaF3
_symmetry_space_group_name_H-M   'P 1'
_cell_length_a   11.46804017
_cell_length_b   11.46804017
_cell_length_c   12.20062748
_cell_angle_alpha   90.00000000
_cell_angle_beta   90.00000000
_cell_angle_gamma   120.00000000
_symmetry_Int_Tables_number   1
_chemical_formula_structural   LiCaF3
_chemical_formula_sum   'Li18 Ca18 F54'
_cell_volume   1389.60449488
_cell_formula_units_Z   18
loop_
 _symmetry_equiv_pos_site_id
 _symmetry_equiv_pos_as_xyz
  1  'x, y, z'
loop_
 _atom_site_type_symbol
 _atom_site_label
 _atom_site_symmetry_multiplicity
 _atom_site_fract_x
 _atom_site_fract_y
 _atom_site_fract_z
 _atom_site_occupancy
  Ca  Ca0  1  0.33333333  0.66666667  0.00000000  1
  Ca  Ca1  1  0.66666667  0.33333333  0.00000000  1
  Ca  Ca2  1  0.00000000  0.00000000  0.50000000  1
  Ca  Ca3  1  0.47761284  0.29207465  0.68260684  1
  Ca  Ca4  1  -0.29207465  0.18553820  0.68260684  1
  Ca  Ca5  1  -0.18553820  -0.47761284  0.68260684  1
  Ca  Ca6  1  0.47761284  0.29207465  -0.68260684  1
  Ca  Ca7  1  -0.29207465  0.18553820  -0.68260684  1
  Ca  Ca8  1  -0.18553820  -0.47761284  -0.68260684  1
  Ca  Ca9  1  0.29207465  0.47761284  -0.68260684  1
  Ca  Ca10  1  0.18553820  -0.29207465  -0.68260684  1
  Ca  Ca11  1  -0.47761284  -0.18553820  -0.68260684  1
  Ca  Ca12  1  0.29207465  0.47761284  0.68260684  1
  Ca  Ca13  1  0.18553820  -0.29207465  0.68260684  1
  Ca  Ca14  1  -0.47761284  -0.18553820  0.68260684  1
  Ca  Ca15  1  0.87899129  0.00000000  0.00000000  1
  Ca  Ca16  1  0.00000000  0.87899129  0.00000000  1
  Ca  Ca17  1  0.12100871  0.12100871  0.00000000  1
  F  F18  1  0.53864302  0.47618036  0.50000000  1
  F  F19  1  0.52381964  0.06246266  0.50000000  1
  F  F20  1  0.93753734  0.46135698  0.50000000  1
  F  F21  1  0.47618036  0.53864302  0.50000000  1
  F  F22  1  0.06246266  0.52381964  0.50000000  1
  F  F23  1  0.46135698  0.93753734  0.50000000  1
  F  F24  1  0.33333333  0.66666667  0.50000000  1
  F  F25  1  0.66666667  0.33333333  0.50000000  1
  F  F26  1  0.65946387  0.39224285  0.91753882  1
  F  F27  1  0.60775715  0.26722102  0.91753882  1
  F  F28  1  0.73277898  0.34053613  0.91753882  1
  F  F29  1  0.65946387  0.39224285  0.08246118  1
  F  F30  1  0.60775715  0.26722102  0.08246118  1
  F  F31  1  0.73277898  0.34053613  0.08246118  1
  F  F32  1  0.39224285  0.65946387  0.08246118  1
  F  F33  1  0.26722102  0.60775715  0.08246118  1
  F  F34  1  0.34053613  0.73277898  0.08246118  1
  F  F35  1  0.39224285  0.65946387  0.91753882  1
  F  F36  1  0.26722102  0.60775715  0.91753882  1
  F  F37  1  0.34053613  0.73277898  0.91753882  1
  F  F38  1  0.00000000  0.00000000  0.00000000  1
  F  F39  1  0.37113522  0.09702707  0.10678783  1
  F  F40  1  0.90297293  0.27410815  0.10678783  1
  F  F41  1  0.72589185  0.62886478  0.10678783  1
  F  F42  1  0.37113522  0.09702707  0.89321217  1
  F  F43  1  0.90297293  0.27410815  0.89321217  1
  F  F44  1  0.72589185  0.62886478  0.89321217  1
  F  F45  1  0.09702707  0.37113522  0.89321217  1
  F  F46  1  0.27410815  0.90297293  0.89321217  1
  F  F47  1  0.62886478  0.72589185  0.89321217  1
  F  F48  1  0.09702707  0.37113522  0.10678783  1
  F  F49  1  0.27410815  0.90297293  0.10678783  1
  F  F50  1  0.62886478  0.72589185  0.10678783  1
  F  F51  1  0.54856026  0.00000000  0.50000000  1
  F  F52  1  0.00000000  0.54856026  0.50000000  1
  F  F53  1  0.45143974  0.45143974  0.50000000  1
  F  F54  1  0.65310326  0.17928122  0.57329473  1
  F  F55  1  0.82071878  0.47382204  0.57329473  1
  F  F56  1  0.52617796  0.34689674  0.57329473  1
  F  F57  1  0.65310326  0.17928122  0.42670527  1
  F  F58  1  0.82071878  0.47382204  0.42670527  1
  F  F59  1  0.52617796  0.34689674  0.42670527  1
  F  F60  1  0.17928122  0.65310326  0.42670527  1
  F  F61  1  0.47382204  0.82071878  0.42670527  1
  F  F62  1  0.34689674  0.52617796  0.42670527  1
  F  F63  1  0.17928122  0.65310326  0.57329473  1
  F  F64  1  0.47382204  0.82071878  0.57329473  1
  F  F65  1  0.34689674  0.52617796  0.57329473  1
  F  F66  1  0.37551967  0.47011279  0.00000000  1
  F  F67  1  0.52988721  0.90540688  0.00000000  1
  F  F68  1  0.09459312  0.62448033  0.00000000  1
  F  F69  1  0.47011279  0.37551967  0.00000000  1
  F  F70  1  0.90540688  0.52988721  0.00000000  1
  F  F71  1  0.62448033  0.09459312  0.00000000  1
  Li  Li72  1  0.56943631  0.00000000  0.91358937  1
  Li  Li73  1  0.00000000  0.56943631  0.91358937  1
  Li  Li74  1  0.43056369  0.43056369  0.91358937  1
  Li  Li75  1  0.56943631  0.00000000  0.08641063  1
  Li  Li76  1  0.00000000  0.56943631  0.08641063  1
  Li  Li77  1  0.43056369  0.43056369  0.08641063  1
  Li  Li78  1  0.25873507  0.57918241  0.25601522  1
  Li  Li79  1  0.42081759  0.67955266  0.25601522  1
  Li  Li80  1  0.32044734  0.74126493  0.25601522  1
  Li  Li81  1  0.25873507  0.57918241  0.74398478  1
  Li  Li82  1  0.42081759  0.67955266  0.74398478  1
  Li  Li83  1  0.32044734  0.74126493  0.74398478  1
  Li  Li84  1  0.57918241  0.25873507  0.74398478  1
  Li  Li85  1  0.67955266  0.42081759  0.74398478  1
  Li  Li86  1  0.74126493  0.32044734  0.74398478  1
  Li  Li87  1  0.57918241  0.25873507  0.25601522  1
  Li  Li88  1  0.67955266  0.42081759  0.25601522  1
  Li  Li89  1  0.74126493  0.32044734  0.25601522  1
