# generated using pymatgen
data_LiF
_symmetry_space_group_name_H-M   'P 1'
_cell_length_a   8.52380630
_cell_length_b   8.52380630
_cell_length_c   12.84438104
_cell_angle_alpha   90.00000000
_cell_angle_beta   90.00000000
_cell_angle_gamma   120.00000000
_symmetry_Int_Tables_number   1
_chemical_formula_structural   LiF
_chemical_formula_sum   'Li38 F38'
_cell_volume   808.18531806
_cell_formula_units_Z   38
loop_
 _symmetry_equiv_pos_site_id
 _symmetry_equiv_pos_as_xyz
  1  'x, y, z'
loop_
 _atom_site_type_symbol
 _atom_site_label
 _atom_site_symmetry_multiplicity
 _atom_site_fract_x
 _atom_site_fract_y
 _atom_site_fract_z
 _atom_site_occupancy
  F  F0  1  0.94812633  0.52887154  0.81666263  1
  F  F1  1  0.47112846  0.41925479  0.81666263  1
  F  F2  1  0.58074521  0.05187367  0.81666263  1
  F  F3  1  0.47112846  0.05187367  0.18333737  1
  F  F4  1  0.58074521  0.52887154  0.18333737  1
  F  F5  1  0.94812633  0.41925479  0.18333737  1
  F  F6  1  0.29643152  0.35878743  0.60358741  1
  F  F7  1  0.64121257  0.93764409  0.60358741  1
  F  F8  1  0.06235591  0.70356848  0.60358741  1
  F  F9  1  0.64121257  0.70356848  0.39641259  1
  F  F10  1  0.06235591  0.35878743  0.39641259  1
  F  F11  1  0.29643152  0.93764409  0.39641259  1
  F  F12  1  0.28228469  0.40381991  0.49381081  1
  F  F13  1  0.59618009  0.87846478  0.49381081  1
  F  F14  1  0.12153522  0.71771531  0.49381081  1
  F  F15  1  0.59618009  0.71771531  0.50618919  1
  F  F16  1  0.12153522  0.40381991  0.50618919  1
  F  F17  1  0.28228469  0.87846478  0.50618919  1
  F  F18  1  0.35750510  0.41492609  0.10631010  1
  F  F19  1  0.58507391  0.94257901  0.10631010  1
  F  F20  1  0.05742099  0.64249490  0.10631010  1
  F  F21  1  0.58507391  0.64249490  0.89368990  1
  F  F22  1  0.05742099  0.41492609  0.89368990  1
  F  F23  1  0.35750510  0.94257901  0.89368990  1
  F  F24  1  0.13092228  0.17621236  0.16775494  1
  F  F25  1  0.82378764  0.95470992  0.16775494  1
  F  F26  1  0.04529008  0.86907772  0.16775494  1
  F  F27  1  0.82378764  0.86907772  0.83224506  1
  F  F28  1  0.04529008  0.17621236  0.83224506  1
  F  F29  1  0.13092228  0.95470992  0.83224506  1
  F  F30  1  0.66666667  0.33333333  0.50000000  1
  F  F31  1  0.04304132  0.95000128  0.40004876  1
  F  F32  1  0.04999872  0.09304004  0.40004876  1
  F  F33  1  0.90695996  0.95695868  0.40004876  1
  F  F34  1  0.04999872  0.95695868  0.59995124  1
  F  F35  1  0.90695996  0.95000128  0.59995124  1
  F  F36  1  0.04304132  0.09304004  0.59995124  1
  F  F37  1  0.66666667  0.33333333  -0.00000000  1
  Li  Li38  1  0.00042950  0.75432576  0.11633737  1
  Li  Li39  1  -0.75432576  -0.75389626  0.11633737  1
  Li  Li40  1  0.75389626  -0.00042950  0.11633737  1
  Li  Li41  1  -0.75432576  -0.00042950  -0.11633737  1
  Li  Li42  1  0.75389626  0.75432576  -0.11633737  1
  Li  Li43  1  0.00042950  -0.75389626  -0.11633737  1
  Li  Li44  1  0.33333333  0.66666667  0.93137942  1
  Li  Li45  1  0.33333333  0.66666667  0.06862058  1
  Li  Li46  1  0.00000000  0.00000000  0.50000000  1
  Li  Li47  1  0.89824183  0.10175817  -0.00000000  1
  Li  Li48  1  0.89824183  0.79648365  0.00000000  1
  Li  Li49  1  0.20351635  0.10175817  -0.00000000  1
  Li  Li50  1  0.33333333  0.66666667  0.50000000  1
  Li  Li51  1  0.43928357  0.13488426  0.64061055  1
  Li  Li52  1  0.86511574  0.30439931  0.64061055  1
  Li  Li53  1  0.69560069  0.56071643  0.64061055  1
  Li  Li54  1  0.86511574  0.56071643  0.35938945  1
  Li  Li55  1  0.69560069  0.13488426  0.35938945  1
  Li  Li56  1  0.43928357  0.30439931  0.35938945  1
  Li  Li57  1  0.11405040  0.94431264  0.09320901  1
  Li  Li58  1  0.05568736  0.16973776  0.09320901  1
  Li  Li59  1  0.83026224  0.88594960  0.09320901  1
  Li  Li60  1  0.05568736  0.88594960  0.90679099  1
  Li  Li61  1  0.83026224  0.94431264  0.90679099  1
  Li  Li62  1  0.11405040  0.16973776  0.90679099  1
  Li  Li63  1  0.59906462  0.14751650  0.56534588  1
  Li  Li64  1  0.85248350  0.45154812  0.56534588  1
  Li  Li65  1  0.54845188  0.40093538  0.56534588  1
  Li  Li66  1  0.85248350  0.40093538  0.43465412  1
  Li  Li67  1  0.54845188  0.14751650  0.43465412  1
  Li  Li68  1  0.59906462  0.45154812  0.43465412  1
  Li  Li69  1  0.83778670  0.16221330  0.50000000  1
  Li  Li70  1  0.83778670  0.67557340  0.50000000  1
  Li  Li71  1  0.32442660  0.16221330  0.50000000  1
  Li  Li72  1  0.20320674  0.79679326  0.00000000  1
  Li  Li73  1  0.20320674  0.40641347  -0.00000000  1
  Li  Li74  1  0.59358653  0.79679326  -0.00000000  1
  Li  Li75  1  0.00000000  0.00000000  0.00000000  1
