# generated using pymatgen
data_Li2CaSeF2
_symmetry_space_group_name_H-M   'P 1'
_cell_length_a   9.40503206
_cell_length_b   8.04866099
_cell_length_c   6.68072413
_cell_angle_alpha   90.00000000
_cell_angle_beta   90.00000000
_cell_angle_gamma   90.00000000
_symmetry_Int_Tables_number   1
_chemical_formula_structural   Li2CaSeF2
_chemical_formula_sum   'Li8 Ca4 Se4 F8'
_cell_volume   505.71688485
_cell_formula_units_Z   4
loop_
 _symmetry_equiv_pos_site_id
 _symmetry_equiv_pos_as_xyz
  1  'x, y, z'
loop_
 _atom_site_type_symbol
 _atom_site_label
 _atom_site_symmetry_multiplicity
 _atom_site_fract_x
 _atom_site_fract_y
 _atom_site_fract_z
 _atom_site_occupancy
  Ca  Ca0  1  0.97342923  0.25000000  0.14041421  1
  Ca  Ca1  1  0.52657077  0.75000000  0.64041421  1
  Ca  Ca2  1  0.02657077  0.75000000  0.85958579  1
  Ca  Ca3  1  0.47342923  0.25000000  0.35958579  1
  F  F4  1  0.98763735  0.46368559  0.93041961  1
  F  F5  1  -0.48763735  -0.46368559  1.43041961  1
  F  F6  1  -0.98763735  0.96368559  -0.93041961  1
  F  F7  1  1.48763735  0.03631441  -0.43041961  1
  F  F8  1  -0.98763735  -0.46368559  -0.93041961  1
  F  F9  1  1.48763735  0.46368559  -0.43041961  1
  F  F10  1  0.98763735  0.03631441  0.93041961  1
  F  F11  1  -0.48763735  0.96368559  1.43041961  1
  Li  Li12  1  0.40551841  0.10447721  0.99244841  1
  Li  Li13  1  0.09448159  0.89552279  0.49244841  1
  Li  Li14  1  0.59448159  0.60447721  0.00755159  1
  Li  Li15  1  0.90551841  0.39552279  0.50755159  1
  Li  Li16  1  0.59448159  0.89552279  0.00755159  1
  Li  Li17  1  0.90551841  0.10447721  0.50755159  1
  Li  Li18  1  0.40551841  0.39552279  0.99244841  1
  Li  Li19  1  0.09448159  0.60447721  0.49244841  1
  Se  Se20  1  0.58913737  0.25000000  0.52029748  1
  Se  Se21  1  0.91086263  0.75000000  0.02029748  1
  Se  Se22  1  0.41086263  0.75000000  0.47970252  1
  Se  Se23  1  0.08913737  0.25000000  0.97970252  1
