# generated using pymatgen
data_LiY2MoP3
_symmetry_space_group_name_H-M   'P 1'
_cell_length_a   5.02275610
_cell_length_b   5.05223545
_cell_length_c   7.26263534
_cell_angle_alpha   94.92309459
_cell_angle_beta   100.72147651
_cell_angle_gamma   109.77411430
_symmetry_Int_Tables_number   1
_chemical_formula_structural   LiY2MoP3
_chemical_formula_sum   'Li1 Y2 Mo1 P3'
_cell_volume   168.18294855
_cell_formula_units_Z   1
loop_
 _symmetry_equiv_pos_site_id
 _symmetry_equiv_pos_as_xyz
  1  'x, y, z'
loop_
 _atom_site_type_symbol
 _atom_site_label
 _atom_site_symmetry_multiplicity
 _atom_site_fract_x
 _atom_site_fract_y
 _atom_site_fract_z
 _atom_site_occupancy
  Y  Y0  1  0.00000000  0.00000000  0.00000000  1
  Y  Y1  1  0.50000000  0.50000000  0.50000000  1
  P  P2  1  0.50000000  0.50000000  0.00000000  1
  P  P3  1  0.50000000  0.00000000  0.50000000  1
  P  P4  1  0.00000000  0.50000000  0.50000000  1
  Mo  Mo5  1  0.95559401  0.19934840  0.83831449  1
  Li  Li6  1  0.49781426  0.10250765  0.01929136  1
