# generated using pymatgen
data_LiF
_symmetry_space_group_name_H-M   'P 1'
_cell_length_a   11.67237957
_cell_length_b   11.25037294
_cell_length_c   5.38050947
_cell_angle_alpha   90.00000000
_cell_angle_beta   90.00000000
_cell_angle_gamma   90.00000000
_symmetry_Int_Tables_number   1
_chemical_formula_structural   LiF
_chemical_formula_sum   'Li24 F24'
_cell_volume   706.56109608
_cell_formula_units_Z   24
loop_
 _symmetry_equiv_pos_site_id
 _symmetry_equiv_pos_as_xyz
  1  'x, y, z'
loop_
 _atom_site_type_symbol
 _atom_site_label
 _atom_site_symmetry_multiplicity
 _atom_site_fract_x
 _atom_site_fract_y
 _atom_site_fract_z
 _atom_site_occupancy
  F  F0  1  0.09975880  0.80616463  0.03997928  1
  F  F1  1  0.40024120  0.19383537  0.53997928  1
  F  F2  1  0.90024120  0.30616463  0.96002072  1
  F  F3  1  0.59975880  0.69383537  0.46002072  1
  F  F4  1  0.90024120  0.19383537  0.96002072  1
  F  F5  1  0.59975880  0.80616463  0.46002072  1
  F  F6  1  0.09975880  0.69383537  0.03997928  1
  F  F7  1  0.40024120  0.30616463  0.53997928  1
  F  F8  1  0.84710534  0.67211682  0.50187332  1
  F  F9  1  0.65289466  0.32788318  0.00187332  1
  F  F10  1  0.15289466  0.17211682  0.49812668  1
  F  F11  1  0.34710534  0.82788318  0.99812668  1
  F  F12  1  0.15289466  0.32788318  0.49812668  1
  F  F13  1  0.34710534  0.67211682  0.99812668  1
  F  F14  1  0.84710534  0.82788318  0.50187332  1
  F  F15  1  0.65289466  0.17211682  0.00187332  1
  F  F16  1  0.42472907  0.25000000  0.19977307  1
  F  F17  1  0.07527093  0.75000000  0.69977307  1
  F  F18  1  0.57527093  0.75000000  0.80022693  1
  F  F19  1  0.92472907  0.25000000  0.30022693  1
  F  F20  1  0.71771337  0.25000000  0.85694195  1
  F  F21  1  0.78228663  0.75000000  0.35694195  1
  F  F22  1  0.28228663  0.75000000  0.14305805  1
  F  F23  1  0.21771337  0.25000000  0.64305805  1
  Li  Li24  1  0.82457349  0.03080258  0.29959080  1
  Li  Li25  1  -0.32457349  -0.03080258  0.79959080  1
  Li  Li26  1  -0.82457349  0.53080258  -0.29959080  1
  Li  Li27  1  1.32457349  0.46919742  0.20040920  1
  Li  Li28  1  -0.82457349  -0.03080258  -0.29959080  1
  Li  Li29  1  1.32457349  0.03080258  0.20040920  1
  Li  Li30  1  0.82457349  0.46919742  0.29959080  1
  Li  Li31  1  -0.32457349  0.53080258  0.79959080  1
  Li  Li32  1  0.00000000  0.00000000  0.50000000  1
  Li  Li33  1  0.50000000  0.00000000  0.00000000  1
  Li  Li34  1  0.00000000  0.50000000  0.50000000  1
  Li  Li35  1  0.50000000  0.50000000  0.00000000  1
  Li  Li36  1  0.80565058  0.86681476  0.77753400  1
  Li  Li37  1  0.69434942  0.13318524  0.27753400  1
  Li  Li38  1  0.19434942  0.36681476  0.22246600  1
  Li  Li39  1  0.30565058  0.63318524  0.72246600  1
  Li  Li40  1  0.19434942  0.13318524  0.22246600  1
  Li  Li41  1  0.30565058  0.86681476  0.72246600  1
  Li  Li42  1  0.80565058  0.63318524  0.77753400  1
  Li  Li43  1  0.69434942  0.36681476  0.27753400  1
  Li  Li44  1  0.00000000  0.00000000  0.00000000  1
  Li  Li45  1  0.50000000  0.00000000  0.50000000  1
  Li  Li46  1  0.00000000  0.50000000  0.00000000  1
  Li  Li47  1  0.50000000  0.50000000  0.50000000  1
