# generated using pymatgen
data_LiF
_symmetry_space_group_name_H-M   'P 1'
_cell_length_a   7.75921732
_cell_length_b   6.25868620
_cell_length_c   10.20773721
_cell_angle_alpha   90.00000000
_cell_angle_beta   90.00000000
_cell_angle_gamma   90.00000000
_symmetry_Int_Tables_number   1
_chemical_formula_structural   LiF
_chemical_formula_sum   'Li24 F24'
_cell_volume   495.71330346
_cell_formula_units_Z   24
loop_
 _symmetry_equiv_pos_site_id
 _symmetry_equiv_pos_as_xyz
  1  'x, y, z'
loop_
 _atom_site_type_symbol
 _atom_site_label
 _atom_site_symmetry_multiplicity
 _atom_site_fract_x
 _atom_site_fract_y
 _atom_site_fract_z
 _atom_site_occupancy
  F  F0  1  0.04884909  0.45477907  0.81043882  1
  F  F1  1  -0.04884909  -0.45477907  0.81043882  1
  F  F2  1  0.45115091  0.95477907  -0.81043882  1
  F  F3  1  0.54884909  0.04522093  -0.81043882  1
  F  F4  1  -0.04884909  -0.45477907  -0.81043882  1
  F  F5  1  0.04884909  0.45477907  -0.81043882  1
  F  F6  1  0.54884909  0.04522093  0.81043882  1
  F  F7  1  0.45115091  0.95477907  0.81043882  1
  F  F8  1  0.42524133  0.82860508  0.03576764  1
  F  F9  1  0.57475867  0.17139492  0.03576764  1
  F  F10  1  0.07475867  0.32860508  0.96423236  1
  F  F11  1  0.92524133  0.67139492  0.96423236  1
  F  F12  1  0.57475867  0.17139492  0.96423236  1
  F  F13  1  0.42524133  0.82860508  0.96423236  1
  F  F14  1  0.92524133  0.67139492  0.03576764  1
  F  F15  1  0.07475867  0.32860508  0.03576764  1
  F  F16  1  0.53275220  0.82799764  0.27782951  1
  F  F17  1  0.46724780  0.17200236  0.27782951  1
  F  F18  1  0.96724780  0.32799764  0.72217049  1
  F  F19  1  0.03275220  0.67200236  0.72217049  1
  F  F20  1  0.46724780  0.17200236  0.72217049  1
  F  F21  1  0.53275220  0.82799764  0.72217049  1
  F  F22  1  0.03275220  0.67200236  0.27782951  1
  F  F23  1  0.96724780  0.32799764  0.27782951  1
  Li  Li24  1  0.18015688  0.50818980  -0.00000000  1
  Li  Li25  1  0.81984312  0.49181020  0.00000000  1
  Li  Li26  1  0.31984312  0.00818980  0.00000000  1
  Li  Li27  1  0.68015688  0.99181020  -0.00000000  1
  Li  Li28  1  0.44294856  0.89843167  0.50000000  1
  Li  Li29  1  0.55705144  0.10156833  0.50000000  1
  Li  Li30  1  0.05705144  0.39843167  0.50000000  1
  Li  Li31  1  0.94294856  0.60156833  0.50000000  1
  Li  Li32  1  0.66566578  0.55742793  0.82767930  1
  Li  Li33  1  0.33433422  0.44257207  0.82767930  1
  Li  Li34  1  0.83433422  0.05742793  0.17232070  1
  Li  Li35  1  0.16566578  0.94257207  0.17232070  1
  Li  Li36  1  0.33433422  0.44257207  0.17232070  1
  Li  Li37  1  0.66566578  0.55742793  0.17232070  1
  Li  Li38  1  0.16566578  0.94257207  0.82767930  1
  Li  Li39  1  0.83433422  0.05742793  0.82767930  1
  Li  Li40  1  0.87148698  0.95424202  0.58315973  1
  Li  Li41  1  0.12851302  0.04575798  0.58315973  1
  Li  Li42  1  0.62851302  0.45424202  0.41684027  1
  Li  Li43  1  0.37148698  0.54575798  0.41684027  1
  Li  Li44  1  0.12851302  0.04575798  0.41684027  1
  Li  Li45  1  0.87148698  0.95424202  0.41684027  1
  Li  Li46  1  0.37148698  0.54575798  0.58315973  1
  Li  Li47  1  0.62851302  0.45424202  0.58315973  1
