# generated using pymatgen
data_Li2Si4Te3F12
_symmetry_space_group_name_H-M   'P 1'
_cell_length_a   9.47309569
_cell_length_b   9.47309569
_cell_length_c   15.81561591
_cell_angle_alpha   90.00000000
_cell_angle_beta   90.00000000
_cell_angle_gamma   90.00000000
_symmetry_Int_Tables_number   1
_chemical_formula_structural   Li2Si4Te3F12
_chemical_formula_sum   'Li8 Si16 Te12 F48'
_cell_volume   1419.28612661
_cell_formula_units_Z   4
loop_
 _symmetry_equiv_pos_site_id
 _symmetry_equiv_pos_as_xyz
  1  'x, y, z'
loop_
 _atom_site_type_symbol
 _atom_site_label
 _atom_site_symmetry_multiplicity
 _atom_site_fract_x
 _atom_site_fract_y
 _atom_site_fract_z
 _atom_site_occupancy
  F  F0  1  0.65930389  0.85275403  0.36221523  1
  F  F1  1  -0.15930389  -0.85275403  0.86221523  1
  F  F2  1  -0.60275403  1.40930389  0.61221523  1
  F  F3  1  1.10275403  -0.40930389  1.11221523  1
  F  F4  1  -0.15930389  0.85275403  0.13778477  1
  F  F5  1  0.65930389  -0.85275403  -0.36221523  1
  F  F6  1  1.10275403  1.40930389  -0.11221523  1
  F  F7  1  -0.60275403  -0.40930389  0.38778477  1
  F  F8  1  -0.65930389  -0.85275403  -0.36221523  1
  F  F9  1  1.15930389  0.85275403  0.13778477  1
  F  F10  1  1.60275403  -0.40930389  0.38778477  1
  F  F11  1  -0.10275403  1.40930389  -0.11221523  1
  F  F12  1  1.15930389  -0.85275403  0.86221523  1
  F  F13  1  -0.65930389  0.85275403  0.36221523  1
  F  F14  1  -0.10275403  -0.40930389  1.11221523  1
  F  F15  1  1.60275403  1.40930389  0.61221523  1
  F  F16  1  1.15930389  1.35275403  0.86221523  1
  F  F17  1  0.34069611  -0.35275403  1.36221523  1
  F  F18  1  -0.10275403  1.90930389  1.11221523  1
  F  F19  1  1.60275403  0.09069611  1.61221523  1
  F  F20  1  0.34069611  1.35275403  0.63778477  1
  F  F21  1  1.15930389  -0.35275403  0.13778477  1
  F  F22  1  1.60275403  1.90930389  0.38778477  1
  F  F23  1  -0.10275403  0.09069611  0.88778477  1
  F  F24  1  -0.15930389  -0.35275403  0.13778477  1
  F  F25  1  1.65930389  1.35275403  0.63778477  1
  F  F26  1  2.10275403  0.09069611  0.88778477  1
  F  F27  1  0.39724597  1.90930389  0.38778477  1
  F  F28  1  1.65930389  -0.35275403  1.36221523  1
  F  F29  1  -0.15930389  1.35275403  0.86221523  1
  F  F30  1  0.39724597  0.09069611  1.61221523  1
  F  F31  1  2.10275403  1.90930389  1.11221523  1
  F  F32  1  0.16470852  0.41470852  0.87500000  1
  F  F33  1  0.33529148  0.58529148  0.37500000  1
  F  F34  1  0.83529148  0.91470852  0.12500000  1
  F  F35  1  0.66470852  0.08529148  0.62500000  1
  F  F36  1  0.83529148  0.58529148  0.12500000  1
  F  F37  1  0.66470852  0.41470852  0.62500000  1
  F  F38  1  0.16470852  0.08529148  0.87500000  1
  F  F39  1  0.33529148  0.91470852  0.37500000  1
  F  F40  1  0.66470852  0.91470852  0.37500000  1
  F  F41  1  0.83529148  0.08529148  0.87500000  1
  F  F42  1  0.33529148  0.41470852  0.62500000  1
  F  F43  1  0.16470852  0.58529148  0.12500000  1
  F  F44  1  0.33529148  0.08529148  0.62500000  1
  F  F45  1  0.16470852  0.91470852  0.12500000  1
  F  F46  1  0.66470852  0.58529148  0.37500000  1
  F  F47  1  0.83529148  0.41470852  0.87500000  1
  Li  Li48  1  0.00000000  0.25000000  0.63541379  1
  Li  Li49  1  0.00000000  0.75000000  0.88541379  1
  Li  Li50  1  0.50000000  0.25000000  0.86458621  1
  Li  Li51  1  0.50000000  0.75000000  0.61458621  1
  Li  Li52  1  0.50000000  0.75000000  0.13541379  1
  Li  Li53  1  0.50000000  0.25000000  0.38541379  1
  Li  Li54  1  0.00000000  0.75000000  0.36458621  1
  Li  Li55  1  0.00000000  0.25000000  0.11458621  1
  Si  Si56  1  0.00000000  0.25000000  0.30230677  1
  Si  Si57  1  0.00000000  0.75000000  0.55230677  1
  Si  Si58  1  0.50000000  0.25000000  0.19769323  1
  Si  Si59  1  0.50000000  0.75000000  0.94769323  1
  Si  Si60  1  0.50000000  0.75000000  0.80230677  1
  Si  Si61  1  0.50000000  0.25000000  0.05230677  1
  Si  Si62  1  0.00000000  0.75000000  0.69769323  1
  Si  Si63  1  0.00000000  0.25000000  0.44769323  1
  Si  Si64  1  0.00000000  0.00000000  0.50000000  1
  Si  Si65  1  0.50000000  0.00000000  0.00000000  1
  Si  Si66  1  0.25000000  0.75000000  0.75000000  1
  Si  Si67  1  0.25000000  0.25000000  0.25000000  1
  Si  Si68  1  0.50000000  0.50000000  0.00000000  1
  Si  Si69  1  0.00000000  0.50000000  0.50000000  1
  Si  Si70  1  0.75000000  0.25000000  0.25000000  1
  Si  Si71  1  0.75000000  0.75000000  0.75000000  1
  Te  Te72  1  0.00000000  0.75000000  0.12500000  1
  Te  Te73  1  0.50000000  0.75000000  0.37500000  1
  Te  Te74  1  0.50000000  0.25000000  0.62500000  1
  Te  Te75  1  0.00000000  0.25000000  0.87500000  1
  Te  Te76  1  0.00000000  0.00000000  0.00000000  1
  Te  Te77  1  0.50000000  0.00000000  0.50000000  1
  Te  Te78  1  0.25000000  0.75000000  0.25000000  1
  Te  Te79  1  0.25000000  0.25000000  0.75000000  1
  Te  Te80  1  0.50000000  0.50000000  0.50000000  1
  Te  Te81  1  0.00000000  0.50000000  0.00000000  1
  Te  Te82  1  0.75000000  0.25000000  0.75000000  1
  Te  Te83  1  0.75000000  0.75000000  0.25000000  1
