# generated using pymatgen
data_LiF
_symmetry_space_group_name_H-M   'P 1'
_cell_length_a   8.35824048
_cell_length_b   8.35824048
_cell_length_c   8.65297097
_cell_angle_alpha   90.00000000
_cell_angle_beta   90.00000000
_cell_angle_gamma   120.00000000
_symmetry_Int_Tables_number   1
_chemical_formula_structural   LiF
_chemical_formula_sum   'Li20 F20'
_cell_volume   523.51074865
_cell_formula_units_Z   20
loop_
 _symmetry_equiv_pos_site_id
 _symmetry_equiv_pos_as_xyz
  1  'x, y, z'
loop_
 _atom_site_type_symbol
 _atom_site_label
 _atom_site_symmetry_multiplicity
 _atom_site_fract_x
 _atom_site_fract_y
 _atom_site_fract_z
 _atom_site_occupancy
  F  F0  1  0.66666667  0.33333333  0.45758932  1
  F  F1  1  0.66666667  0.33333333  0.54241068  1
  F  F2  1  0.33333333  0.66666667  0.50000000  1
  F  F3  1  0.10466923  0.89533077  0.50000000  1
  F  F4  1  0.10466923  0.20933845  0.50000000  1
  F  F5  1  0.79066155  0.89533077  0.50000000  1
  F  F6  1  0.38144632  0.62185913  0.40734102  1
  F  F7  1  0.37814087  0.75958719  0.40734102  1
  F  F8  1  0.24041281  0.61855368  0.40734102  1
  F  F9  1  0.37814087  0.61855368  0.59265898  1
  F  F10  1  0.24041281  0.62185913  0.59265898  1
  F  F11  1  0.38144632  0.75958719  0.59265898  1
  F  F12  1  0.58975535  0.58983427  0.49948410  1
  F  F13  1  0.41016573  0.99992108  0.49948410  1
  F  F14  1  0.00007892  0.41024465  0.49948410  1
  F  F15  1  0.41016573  0.41024465  0.50051590  1
  F  F16  1  0.00007892  0.58983427  0.50051590  1
  F  F17  1  0.58975535  0.99992108  0.50051590  1
  F  F18  1  0.66666667  0.33333333  0.13020982  1
  F  F19  1  0.66666667  0.33333333  0.86979018  1
  Li  Li20  1  0.00000000  0.00000000  0.00000000  1
  Li  Li21  1  0.78546724  0.02435907  0.64556796  1
  Li  Li22  1  -0.02435907  0.76110818  0.64556796  1
  Li  Li23  1  -0.76110818  -0.78546724  0.64556796  1
  Li  Li24  1  -0.02435907  -0.78546724  -0.64556796  1
  Li  Li25  1  -0.76110818  0.02435907  -0.64556796  1
  Li  Li26  1  0.78546724  0.76110818  -0.64556796  1
  Li  Li27  1  0.60786948  0.83486714  0.23397636  1
  Li  Li28  1  0.16513286  0.77300234  0.23397636  1
  Li  Li29  1  0.22699766  0.39213052  0.23397636  1
  Li  Li30  1  0.16513286  0.39213052  0.76602364  1
  Li  Li31  1  0.22699766  0.83486714  0.76602364  1
  Li  Li32  1  0.60786948  0.77300234  0.76602364  1
  Li  Li33  1  0.28408053  0.03291838  0.02233192  1
  Li  Li34  1  0.96708162  0.25116216  0.02233192  1
  Li  Li35  1  0.74883784  0.71591947  0.02233192  1
  Li  Li36  1  0.96708162  0.71591947  0.97766808  1
  Li  Li37  1  0.74883784  0.03291838  0.97766808  1
  Li  Li38  1  0.28408053  0.25116216  0.97766808  1
  Li  Li39  1  0.00000000  0.00000000  0.50000000  1
