# generated using pymatgen
data_LiY2Te4P3Se2
_symmetry_space_group_name_H-M   'P 1'
_cell_length_a   5.21120940
_cell_length_b   5.36770512
_cell_length_c   7.27347760
_cell_angle_alpha   94.56106442
_cell_angle_beta   99.93305007
_cell_angle_gamma   108.31998300
_symmetry_Int_Tables_number   1
_chemical_formula_structural   LiY2Te4P3Se2
_chemical_formula_sum   'Li1 Y2 Te4 P3 Se2'
_cell_volume   188.29229712
_cell_formula_units_Z   1
loop_
 _symmetry_equiv_pos_site_id
 _symmetry_equiv_pos_as_xyz
  1  'x, y, z'
loop_
 _atom_site_type_symbol
 _atom_site_label
 _atom_site_symmetry_multiplicity
 _atom_site_fract_x
 _atom_site_fract_y
 _atom_site_fract_z
 _atom_site_occupancy
  Se  Se0  1  0.12500000  0.00000000  0.25000000  1
  Se  Se1  1  0.00000000  0.00000000  0.00000000  1
  Te  Te2  1  0.37500000  0.00000000  0.25000000  1
  Te  Te3  1  0.25000000  0.25000000  0.25000000  1
  Te  Te4  1  0.00000000  0.25000000  0.12500000  1
  Te  Te5  1  0.87869182  0.46602140  0.08132657  1
  Y  Y6  1  0.20393388  0.15153007  0.64246848  1
  Y  Y7  1  0.47404685  0.19041665  0.79980144  1
  P  P8  1  0.91279552  0.03029115  0.13375771  1
  P  P9  1  0.54628708  0.52642189  0.96917436  1
  P  P10  1  0.70970411  0.54506839  0.68680629  1
  Li  Li11  1  0.26890803  0.75353645  0.86985223  1
