# generated using pymatgen
data_LiF
_symmetry_space_group_name_H-M   'P 1'
_cell_length_a   5.96014843
_cell_length_b   14.27450345
_cell_length_c   6.86118165
_cell_angle_alpha   90.00000000
_cell_angle_beta   90.00000000
_cell_angle_gamma   90.00000000
_symmetry_Int_Tables_number   1
_chemical_formula_structural   LiF
_chemical_formula_sum   'Li20 F20'
_cell_volume   583.73670516
_cell_formula_units_Z   20
loop_
 _symmetry_equiv_pos_site_id
 _symmetry_equiv_pos_as_xyz
  1  'x, y, z'
loop_
 _atom_site_type_symbol
 _atom_site_label
 _atom_site_symmetry_multiplicity
 _atom_site_fract_x
 _atom_site_fract_y
 _atom_site_fract_z
 _atom_site_occupancy
  F  F0  1  0.00000000  0.50000000  0.60860989  1
  F  F1  1  0.50000000  0.00000000  0.39139011  1
  F  F2  1  0.00000000  0.50000000  0.39139011  1
  F  F3  1  0.50000000  0.00000000  0.60860989  1
  F  F4  1  0.27635550  0.76393478  0.83739509  1
  F  F5  1  -0.27635550  -0.76393478  0.83739509  1
  F  F6  1  0.22364450  1.26393478  -0.83739509  1
  F  F7  1  0.77635550  -0.26393478  -0.83739509  1
  F  F8  1  -0.27635550  -0.76393478  -0.83739509  1
  F  F9  1  0.27635550  0.76393478  -0.83739509  1
  F  F10  1  0.77635550  -0.26393478  0.83739509  1
  F  F11  1  0.22364450  1.26393478  0.83739509  1
  F  F12  1  0.00000000  0.00000000  0.83226108  1
  F  F13  1  0.50000000  0.50000000  0.16773892  1
  F  F14  1  0.00000000  0.00000000  0.16773892  1
  F  F15  1  0.50000000  0.50000000  0.83226108  1
  F  F16  1  0.00000000  0.50000000  0.24548793  1
  F  F17  1  0.50000000  0.00000000  0.75451207  1
  F  F18  1  0.00000000  0.50000000  0.75451207  1
  F  F19  1  0.50000000  0.00000000  0.24548793  1
  Li  Li20  1  0.90492256  0.35840980  0.50000000  1
  Li  Li21  1  0.09507744  0.64159020  0.50000000  1
  Li  Li22  1  0.59507744  0.85840980  0.50000000  1
  Li  Li23  1  0.40492256  0.14159020  0.50000000  1
  Li  Li24  1  0.45561634  0.77856852  0.20564467  1
  Li  Li25  1  0.54438366  0.22143148  0.20564467  1
  Li  Li26  1  0.04438366  0.27856852  0.79435533  1
  Li  Li27  1  0.95561634  0.72143148  0.79435533  1
  Li  Li28  1  0.54438366  0.22143148  0.79435533  1
  Li  Li29  1  0.45561634  0.77856852  0.79435533  1
  Li  Li30  1  0.95561634  0.72143148  0.20564467  1
  Li  Li31  1  0.04438366  0.27856852  0.20564467  1
  Li  Li32  1  0.61146627  0.87865202  0.00000000  1
  Li  Li33  1  0.38853373  0.12134798  0.00000000  1
  Li  Li34  1  0.88853373  0.37865202  0.00000000  1
  Li  Li35  1  0.11146627  0.62134798  0.00000000  1
  Li  Li36  1  0.97883713  0.18937582  0.00000000  1
  Li  Li37  1  0.02116287  0.81062418  -0.00000000  1
  Li  Li38  1  0.52116287  0.68937582  0.00000000  1
  Li  Li39  1  0.47883713  0.31062418  -0.00000000  1
