# generated using pymatgen
data_LiF
_symmetry_space_group_name_H-M   'P 1'
_cell_length_a   5.98722675
_cell_length_b   8.16337946
_cell_length_c   11.46481267
_cell_angle_alpha   90.00000000
_cell_angle_beta   90.00000000
_cell_angle_gamma   90.00000000
_symmetry_Int_Tables_number   1
_chemical_formula_structural   LiF
_chemical_formula_sum   'Li36 F36'
_cell_volume   560.35422772
_cell_formula_units_Z   36
loop_
 _symmetry_equiv_pos_site_id
 _symmetry_equiv_pos_as_xyz
  1  'x, y, z'
loop_
 _atom_site_type_symbol
 _atom_site_label
 _atom_site_symmetry_multiplicity
 _atom_site_fract_x
 _atom_site_fract_y
 _atom_site_fract_z
 _atom_site_occupancy
  F  F0  1  0.72223310  0.36104991  0.96374993  1
  F  F1  1  -0.72223310  -0.36104991  0.96374993  1
  F  F2  1  -0.22223310  0.86104991  -0.46374993  1
  F  F3  1  1.22223310  0.13895009  -0.46374993  1
  F  F4  1  -0.72223310  -0.36104991  -0.96374993  1
  F  F5  1  0.72223310  0.36104991  -0.96374993  1
  F  F6  1  1.22223310  0.13895009  1.46374993  1
  F  F7  1  -0.22223310  0.86104991  1.46374993  1
  F  F8  1  0.11484996  0.39653012  0.91771550  1
  F  F9  1  0.88515004  0.60346988  0.91771550  1
  F  F10  1  0.38515004  0.89653012  0.58228450  1
  F  F11  1  0.61484996  0.10346988  0.58228450  1
  F  F12  1  0.88515004  0.60346988  0.08228450  1
  F  F13  1  0.11484996  0.39653012  0.08228450  1
  F  F14  1  0.61484996  0.10346988  0.41771550  1
  F  F15  1  0.38515004  0.89653012  0.41771550  1
  F  F16  1  0.89762867  0.22371042  0.47392621  1
  F  F17  1  0.10237133  0.77628958  0.47392621  1
  F  F18  1  0.60237133  0.72371042  0.02607379  1
  F  F19  1  0.39762867  0.27628958  0.02607379  1
  F  F20  1  0.10237133  0.77628958  0.52607379  1
  F  F21  1  0.89762867  0.22371042  0.52607379  1
  F  F22  1  0.39762867  0.27628958  0.97392621  1
  F  F23  1  0.60237133  0.72371042  0.97392621  1
  F  F24  1  0.00000000  0.00000000  0.56697041  1
  F  F25  1  0.50000000  0.50000000  0.93302959  1
  F  F26  1  0.00000000  0.00000000  0.43302959  1
  F  F27  1  0.50000000  0.50000000  0.06697041  1
  F  F28  1  0.00000000  0.50000000  0.50000000  1
  F  F29  1  0.50000000  0.00000000  0.00000000  1
  F  F30  1  0.28423602  0.27012665  0.00000000  1
  F  F31  1  0.71576398  0.72987335  0.00000000  1
  F  F32  1  0.21576398  0.77012665  0.50000000  1
  F  F33  1  0.78423602  0.22987335  0.50000000  1
  F  F34  1  0.00000000  0.00000000  0.50000000  1
  F  F35  1  0.50000000  0.50000000  0.00000000  1
  Li  Li36  1  0.64697143  0.95393221  0.34174660  1
  Li  Li37  1  0.35302857  0.04606779  0.34174660  1
  Li  Li38  1  0.85302857  0.45393221  0.15825340  1
  Li  Li39  1  0.14697143  0.54606779  0.15825340  1
  Li  Li40  1  0.35302857  0.04606779  0.65825340  1
  Li  Li41  1  0.64697143  0.95393221  0.65825340  1
  Li  Li42  1  0.14697143  0.54606779  0.84174660  1
  Li  Li43  1  0.85302857  0.45393221  0.84174660  1
  Li  Li44  1  0.13756553  0.91672560  0.79641822  1
  Li  Li45  1  0.86243447  0.08327440  0.79641822  1
  Li  Li46  1  0.36243447  0.41672560  0.70358178  1
  Li  Li47  1  0.63756553  0.58327440  0.70358178  1
  Li  Li48  1  0.86243447  0.08327440  0.20358178  1
  Li  Li49  1  0.13756553  0.91672560  0.20358178  1
  Li  Li50  1  0.63756553  0.58327440  0.29641822  1
  Li  Li51  1  0.36243447  0.41672560  0.29641822  1
  Li  Li52  1  0.01452684  0.73744805  0.15653876  1
  Li  Li53  1  0.98547316  0.26255195  0.15653876  1
  Li  Li54  1  0.48547316  0.23744805  0.34346124  1
  Li  Li55  1  0.51452684  0.76255195  0.34346124  1
  Li  Li56  1  0.98547316  0.26255195  0.84346124  1
  Li  Li57  1  0.01452684  0.73744805  0.84346124  1
  Li  Li58  1  0.51452684  0.76255195  0.65653876  1
  Li  Li59  1  0.48547316  0.23744805  0.65653876  1
  Li  Li60  1  0.02852424  0.35581921  0.41540333  1
  Li  Li61  1  0.97147576  0.64418079  0.41540333  1
  Li  Li62  1  0.47147576  0.85581921  0.08459667  1
  Li  Li63  1  0.52852424  0.14418079  0.08459667  1
  Li  Li64  1  0.97147576  0.64418079  0.58459667  1
  Li  Li65  1  0.02852424  0.35581921  0.58459667  1
  Li  Li66  1  0.52852424  0.14418079  0.91540333  1
  Li  Li67  1  0.47147576  0.85581921  0.91540333  1
  Li  Li68  1  0.27661756  0.39616609  0.00000000  1
  Li  Li69  1  0.72338244  0.60383391  0.00000000  1
  Li  Li70  1  0.22338244  0.89616609  0.50000000  1
  Li  Li71  1  0.77661756  0.10383391  0.50000000  1
