# generated using pymatgen
data_LiF
_symmetry_space_group_name_H-M   'P 1'
_cell_length_a   5.85856548
_cell_length_b   7.93047081
_cell_length_c   11.67453611
_cell_angle_alpha   90.00000000
_cell_angle_beta   90.00000000
_cell_angle_gamma   90.00000000
_symmetry_Int_Tables_number   1
_chemical_formula_structural   LiF
_chemical_formula_sum   'Li24 F24'
_cell_volume   542.41275239
_cell_formula_units_Z   24
loop_
 _symmetry_equiv_pos_site_id
 _symmetry_equiv_pos_as_xyz
  1  'x, y, z'
loop_
 _atom_site_type_symbol
 _atom_site_label
 _atom_site_symmetry_multiplicity
 _atom_site_fract_x
 _atom_site_fract_y
 _atom_site_fract_z
 _atom_site_occupancy
  F  F0  1  0.98445458  0.00806494  0.24773873  1
  F  F1  1  0.51554542  0.99193506  0.74773873  1
  F  F2  1  0.01554542  0.50806494  0.75226127  1
  F  F3  1  0.48445458  0.49193506  0.25226127  1
  F  F4  1  0.01554542  0.99193506  0.75226127  1
  F  F5  1  0.48445458  0.00806494  0.25226127  1
  F  F6  1  0.98445458  0.49193506  0.24773873  1
  F  F7  1  0.51554542  0.50806494  0.74773873  1
  F  F8  1  0.08715466  0.89150756  0.33798804  1
  F  F9  1  0.41284534  0.10849244  0.83798804  1
  F  F10  1  0.91284534  0.39150756  0.66201196  1
  F  F11  1  0.58715466  0.60849244  0.16201196  1
  F  F12  1  0.91284534  0.10849244  0.66201196  1
  F  F13  1  0.58715466  0.89150756  0.16201196  1
  F  F14  1  0.08715466  0.60849244  0.33798804  1
  F  F15  1  0.41284534  0.39150756  0.83798804  1
  F  F16  1  0.88609928  0.25000000  0.65403242  1
  F  F17  1  0.61390072  0.75000000  0.15403242  1
  F  F18  1  0.11390072  0.75000000  0.34596758  1
  F  F19  1  0.38609928  0.25000000  0.84596758  1
  F  F20  1  0.00000000  0.00000000  0.00000000  1
  F  F21  1  0.50000000  0.00000000  0.50000000  1
  F  F22  1  0.00000000  0.50000000  0.00000000  1
  F  F23  1  0.50000000  0.50000000  0.50000000  1
  Li  Li24  1  0.00000000  0.00000000  0.50000000  1
  Li  Li25  1  0.50000000  0.00000000  0.00000000  1
  Li  Li26  1  0.00000000  0.50000000  0.50000000  1
  Li  Li27  1  0.50000000  0.50000000  -0.00000000  1
  Li  Li28  1  0.21189250  0.00792914  0.14454799  1
  Li  Li29  1  0.28810750  -0.00792914  0.64454799  1
  Li  Li30  1  -0.21189250  0.50792914  -0.14454799  1
  Li  Li31  1  0.71189250  0.49207086  0.35545201  1
  Li  Li32  1  -0.21189250  -0.00792914  -0.14454799  1
  Li  Li33  1  0.71189250  0.00792914  0.35545201  1
  Li  Li34  1  0.21189250  0.49207086  0.14454799  1
  Li  Li35  1  0.28810750  0.50792914  0.64454799  1
  Li  Li36  1  0.57883729  0.25000000  0.67898649  1
  Li  Li37  1  0.92116271  0.75000000  0.17898649  1
  Li  Li38  1  0.42116271  0.75000000  0.32101351  1
  Li  Li39  1  0.07883729  0.25000000  0.82101351  1
  Li  Li40  1  0.18813799  0.25000000  0.93053621  1
  Li  Li41  1  0.31186201  0.75000000  0.43053621  1
  Li  Li42  1  0.81186201  0.75000000  0.06946379  1
  Li  Li43  1  0.68813799  0.25000000  0.56946379  1
  Li  Li44  1  0.39853417  0.25000000  0.19032408  1
  Li  Li45  1  0.10146583  0.75000000  0.69032408  1
  Li  Li46  1  0.60146583  0.75000000  0.80967592  1
  Li  Li47  1  0.89853417  0.25000000  0.30967592  1
