# generated using pymatgen
data_Li2Y2Cu3P3Se
_symmetry_space_group_name_H-M   'P 1'
_cell_length_a   5.09077810
_cell_length_b   5.22785239
_cell_length_c   6.98936606
_cell_angle_alpha   94.35590375
_cell_angle_beta   98.30510163
_cell_angle_gamma   105.64357652
_symmetry_Int_Tables_number   1
_chemical_formula_structural   Li2Y2Cu3P3Se
_chemical_formula_sum   'Li2 Y2 Cu3 P3 Se1'
_cell_volume   175.95162027
_cell_formula_units_Z   1
loop_
 _symmetry_equiv_pos_site_id
 _symmetry_equiv_pos_as_xyz
  1  'x, y, z'
loop_
 _atom_site_type_symbol
 _atom_site_label
 _atom_site_symmetry_multiplicity
 _atom_site_fract_x
 _atom_site_fract_y
 _atom_site_fract_z
 _atom_site_occupancy
  Se  Se0  1  0.00000000  0.00000000  0.00000000  1
  Cu  Cu1  1  0.50000000  0.50000000  0.50000000  1
  Cu  Cu2  1  0.25000000  0.25000000  0.25000000  1
  Cu  Cu3  1  0.75000000  0.25000000  0.00000000  1
  Y  Y4  1  0.25000000  0.75000000  0.50000000  1
  Y  Y5  1  0.02004181  0.08964334  0.55022325  1
  P  P6  1  0.36945738  0.41226914  0.02334354  1
  P  P7  1  0.33792138  0.98297101  0.38680467  1
  P  P8  1  0.49396920  0.67748444  0.97626816  1
  Li  Li9  1  0.61785469  0.42457654  0.55296544  1
  Li  Li10  1  0.13086433  0.87388887  0.15142985  1
