# generated using pymatgen
data_LiF
_symmetry_space_group_name_H-M   'P 1'
_cell_length_a   7.68574751
_cell_length_b   7.68574751
_cell_length_c   9.47127145
_cell_angle_alpha   90.00000000
_cell_angle_beta   90.00000000
_cell_angle_gamma   90.00000000
_symmetry_Int_Tables_number   1
_chemical_formula_structural   LiF
_chemical_formula_sum   'Li21 F21'
_cell_volume   559.47477369
_cell_formula_units_Z   21
loop_
 _symmetry_equiv_pos_site_id
 _symmetry_equiv_pos_as_xyz
  1  'x, y, z'
loop_
 _atom_site_type_symbol
 _atom_site_label
 _atom_site_symmetry_multiplicity
 _atom_site_fract_x
 _atom_site_fract_y
 _atom_site_fract_z
 _atom_site_occupancy
  F  F0  1  0.92555832  0.00000000  0.89625975  1
  F  F1  1  0.07444168  0.00000000  0.89625975  1
  F  F2  1  0.00000000  0.92555832  0.89625975  1
  F  F3  1  0.00000000  0.07444168  0.89625975  1
  F  F4  1  0.07444168  0.00000000  0.10374025  1
  F  F5  1  0.92555832  0.00000000  0.10374025  1
  F  F6  1  0.00000000  0.92555832  0.10374025  1
  F  F7  1  0.00000000  0.07444168  0.10374025  1
  F  F8  1  0.00000000  0.50000000  0.81077361  1
  F  F9  1  0.50000000  0.00000000  0.81077361  1
  F  F10  1  0.00000000  0.50000000  0.18922639  1
  F  F11  1  0.50000000  0.00000000  0.18922639  1
  F  F12  1  0.59852084  0.00000000  0.14639243  1
  F  F13  1  0.40147916  0.00000000  0.14639243  1
  F  F14  1  0.00000000  0.59852084  0.14639243  1
  F  F15  1  0.00000000  0.40147916  0.14639243  1
  F  F16  1  0.40147916  0.00000000  0.85360757  1
  F  F17  1  0.59852084  0.00000000  0.85360757  1
  F  F18  1  0.00000000  0.59852084  0.85360757  1
  F  F19  1  0.00000000  0.40147916  0.85360757  1
  F  F20  1  0.50000000  0.50000000  0.50000000  1
  Li  Li21  1  0.50000000  0.50000000  0.70887552  1
  Li  Li22  1  0.50000000  0.50000000  0.29112448  1
  Li  Li23  1  0.71662481  0.85239277  0.25719916  1
  Li  Li24  1  -0.71662481  -0.85239277  0.25719916  1
  Li  Li25  1  -0.85239277  0.71662481  0.25719916  1
  Li  Li26  1  0.85239277  -0.71662481  0.25719916  1
  Li  Li27  1  -0.71662481  0.85239277  -0.25719916  1
  Li  Li28  1  0.71662481  -0.85239277  -0.25719916  1
  Li  Li29  1  0.85239277  0.71662481  -0.25719916  1
  Li  Li30  1  -0.85239277  -0.71662481  -0.25719916  1
  Li  Li31  1  -0.71662481  -0.85239277  -0.25719916  1
  Li  Li32  1  0.71662481  0.85239277  -0.25719916  1
  Li  Li33  1  0.85239277  -0.71662481  -0.25719916  1
  Li  Li34  1  -0.85239277  0.71662481  -0.25719916  1
  Li  Li35  1  0.71662481  -0.85239277  0.25719916  1
  Li  Li36  1  -0.71662481  0.85239277  0.25719916  1
  Li  Li37  1  -0.85239277  -0.71662481  0.25719916  1
  Li  Li38  1  0.85239277  0.71662481  0.25719916  1
  Li  Li39  1  0.50000000  0.50000000  0.00000000  1
  Li  Li40  1  0.00000000  0.50000000  0.00000000  1
  Li  Li41  1  0.50000000  0.00000000  0.00000000  1
