# generated using pymatgen
data_Li2Si4Te3F12
_symmetry_space_group_name_H-M   'P 1'
_cell_length_a   8.72533530
_cell_length_b   8.72533530
_cell_length_c   12.53472588
_cell_angle_alpha   90.00000000
_cell_angle_beta   90.00000000
_cell_angle_gamma   90.00000000
_symmetry_Int_Tables_number   1
_chemical_formula_structural   Li2Si4Te3F12
_chemical_formula_sum   'Li8 Si16 Te12 F48'
_cell_volume   954.28718391
_cell_formula_units_Z   4
loop_
 _symmetry_equiv_pos_site_id
 _symmetry_equiv_pos_as_xyz
  1  'x, y, z'
loop_
 _atom_site_type_symbol
 _atom_site_label
 _atom_site_symmetry_multiplicity
 _atom_site_fract_x
 _atom_site_fract_y
 _atom_site_fract_z
 _atom_site_occupancy
  F  F0  1  0.00000000  0.47926663  0.55019537  1
  F  F1  1  0.50000000  0.52073337  0.05019537  1
  F  F2  1  0.77073337  0.75000000  0.80019537  1
  F  F3  1  0.72926663  0.25000000  0.30019537  1
  F  F4  1  0.50000000  0.47926663  0.94980463  1
  F  F5  1  0.00000000  0.52073337  0.44980463  1
  F  F6  1  0.72926663  0.75000000  0.69980463  1
  F  F7  1  0.77073337  0.25000000  0.19980463  1
  F  F8  1  0.50000000  0.97926663  0.05019537  1
  F  F9  1  0.00000000  0.02073337  0.55019537  1
  F  F10  1  0.27073337  0.25000000  0.30019537  1
  F  F11  1  0.22926663  0.75000000  0.80019537  1
  F  F12  1  0.00000000  0.97926663  0.44980463  1
  F  F13  1  0.50000000  0.02073337  0.94980463  1
  F  F14  1  0.22926663  0.25000000  0.19980463  1
  F  F15  1  0.27073337  0.75000000  0.69980463  1
  F  F16  1  0.76831074  -0.00000000  -0.00000000  1
  F  F17  1  0.73168926  0.00000000  0.50000000  1
  F  F18  1  0.25000000  0.51831074  0.25000000  1
  F  F19  1  0.25000000  0.48168926  0.75000000  1
  F  F20  1  0.23168926  0.00000000  0.00000000  1
  F  F21  1  0.26831074  0.00000000  0.50000000  1
  F  F22  1  0.75000000  0.48168926  0.75000000  1
  F  F23  1  0.75000000  0.51831074  0.25000000  1
  F  F24  1  0.26831074  0.50000000  0.50000000  1
  F  F25  1  0.23168926  0.50000000  -0.00000000  1
  F  F26  1  0.75000000  0.01831074  0.75000000  1
  F  F27  1  0.75000000  0.98168926  0.25000000  1
  F  F28  1  0.73168926  0.50000000  0.50000000  1
  F  F29  1  0.76831074  0.50000000  0.00000000  1
  F  F30  1  0.25000000  0.98168926  0.25000000  1
  F  F31  1  0.25000000  0.01831074  0.75000000  1
  F  F32  1  0.00000000  0.52563744  0.15783262  1
  F  F33  1  0.50000000  0.47436256  0.65783262  1
  F  F34  1  0.72436256  0.75000000  0.40783262  1
  F  F35  1  0.77563744  0.25000000  0.90783262  1
  F  F36  1  0.50000000  0.52563744  0.34216738  1
  F  F37  1  0.00000000  0.47436256  0.84216738  1
  F  F38  1  0.77563744  0.75000000  0.09216738  1
  F  F39  1  0.72436256  0.25000000  0.59216738  1
  F  F40  1  0.50000000  0.02563744  0.65783262  1
  F  F41  1  0.00000000  0.97436256  0.15783262  1
  F  F42  1  0.22436256  0.25000000  0.90783262  1
  F  F43  1  0.27563744  0.75000000  0.40783262  1
  F  F44  1  0.00000000  0.02563744  0.84216738  1
  F  F45  1  0.50000000  0.97436256  0.34216738  1
  F  F46  1  0.27563744  0.25000000  0.59216738  1
  F  F47  1  0.22436256  0.75000000  0.09216738  1
  Li  Li48  1  0.00000000  0.25000000  0.00817754  1
  Li  Li49  1  0.00000000  0.75000000  0.25817754  1
  Li  Li50  1  0.50000000  0.25000000  0.49182246  1
  Li  Li51  1  0.50000000  0.75000000  0.24182246  1
  Li  Li52  1  0.50000000  0.75000000  0.50817754  1
  Li  Li53  1  0.50000000  0.25000000  0.75817754  1
  Li  Li54  1  0.00000000  0.75000000  0.99182246  1
  Li  Li55  1  0.00000000  0.25000000  0.74182246  1
  Si  Si56  1  0.24636729  0.49636729  0.87500000  1
  Si  Si57  1  0.25363271  0.50363271  0.37500000  1
  Si  Si58  1  -0.24636729  0.99636729  0.12500000  1
  Si  Si59  1  0.74636729  0.00363271  0.62500000  1
  Si  Si60  1  -0.24636729  0.50363271  0.12500000  1
  Si  Si61  1  0.74636729  0.49636729  0.62500000  1
  Si  Si62  1  0.24636729  0.00363271  0.87500000  1
  Si  Si63  1  0.25363271  0.99636729  0.37500000  1
  Si  Si64  1  0.74636729  0.99636729  1.37500000  1
  Si  Si65  1  0.75363271  1.00363271  0.87500000  1
  Si  Si66  1  0.25363271  1.49636729  0.62500000  1
  Si  Si67  1  1.24636729  0.50363271  1.12500000  1
  Si  Si68  1  0.25363271  1.00363271  0.62500000  1
  Si  Si69  1  1.24636729  0.99636729  1.12500000  1
  Si  Si70  1  0.74636729  0.50363271  1.37500000  1
  Si  Si71  1  0.75363271  1.49636729  0.87500000  1
  Te  Te72  1  0.00000000  0.25000000  0.37500000  1
  Te  Te73  1  0.00000000  0.75000000  0.62500000  1
  Te  Te74  1  0.50000000  0.75000000  0.87500000  1
  Te  Te75  1  0.50000000  0.25000000  0.12500000  1
  Te  Te76  1  0.00000000  0.00000000  0.00000000  1
  Te  Te77  1  0.50000000  -0.00000000  0.50000000  1
  Te  Te78  1  0.25000000  0.75000000  0.25000000  1
  Te  Te79  1  0.25000000  0.25000000  0.75000000  1
  Te  Te80  1  0.50000000  0.50000000  0.50000000  1
  Te  Te81  1  0.00000000  0.50000000  0.00000000  1
  Te  Te82  1  0.75000000  0.25000000  0.75000000  1
  Te  Te83  1  0.75000000  0.75000000  0.25000000  1
