# generated using pymatgen
data_Li2Y2MoP3Se2
_symmetry_space_group_name_H-M   'P 1'
_cell_length_a   4.84595999
_cell_length_b   5.15594974
_cell_length_c   7.08595587
_cell_angle_alpha   95.08557507
_cell_angle_beta   101.07532523
_cell_angle_gamma   110.42673383
_symmetry_Int_Tables_number   1
_chemical_formula_structural   Li2Y2MoP3Se2
_chemical_formula_sum   'Li2 Y2 Mo1 P3 Se2'
_cell_volume   160.47338932
_cell_formula_units_Z   1
loop_
 _symmetry_equiv_pos_site_id
 _symmetry_equiv_pos_as_xyz
  1  'x, y, z'
loop_
 _atom_site_type_symbol
 _atom_site_label
 _atom_site_symmetry_multiplicity
 _atom_site_fract_x
 _atom_site_fract_y
 _atom_site_fract_z
 _atom_site_occupancy
  Se  Se0  1  0.00000000  0.00000000  0.00000000  1
  Se  Se1  1  0.50000000  0.50000000  0.50000000  1
  Y  Y2  1  0.50000000  0.50000000  0.00000000  1
  Y  Y3  1  0.50000000  0.00000000  0.50000000  1
  P  P4  1  0.00000000  0.50000000  0.50000000  1
  P  P5  1  0.48786780  0.45291976  0.97159911  1
  P  P6  1  0.28421363  0.10383906  0.71477334  1
  Mo  Mo7  1  0.92154576  0.02188414  0.91886780  1
  Li  Li8  1  0.26823049  0.63373368  0.00372312  1
  Li  Li9  1  0.20001624  0.05133280  0.81198170  1
