# generated using pymatgen
data_LiF
_symmetry_space_group_name_H-M   'P 1'
_cell_length_a   9.90948941
_cell_length_b   6.11903272
_cell_length_c   11.84352894
_cell_angle_alpha   90.00000000
_cell_angle_beta   90.00000000
_cell_angle_gamma   90.00000000
_symmetry_Int_Tables_number   1
_chemical_formula_structural   LiF
_chemical_formula_sum   'Li24 F24'
_cell_volume   718.15002382
_cell_formula_units_Z   24
loop_
 _symmetry_equiv_pos_site_id
 _symmetry_equiv_pos_as_xyz
  1  'x, y, z'
loop_
 _atom_site_type_symbol
 _atom_site_label
 _atom_site_symmetry_multiplicity
 _atom_site_fract_x
 _atom_site_fract_y
 _atom_site_fract_z
 _atom_site_occupancy
  F  F0  1  0.20128903  0.85848154  0.91749629  1
  F  F1  1  0.29871097  0.14151846  0.41749629  1
  F  F2  1  0.79871097  0.35848154  0.08250371  1
  F  F3  1  0.70128903  0.64151846  0.58250371  1
  F  F4  1  0.79871097  0.14151846  0.08250371  1
  F  F5  1  0.70128903  0.85848154  0.58250371  1
  F  F6  1  0.20128903  0.64151846  0.91749629  1
  F  F7  1  0.29871097  0.35848154  0.41749629  1
  F  F8  1  0.23430667  0.25000000  0.48163222  1
  F  F9  1  0.26569333  0.75000000  0.98163222  1
  F  F10  1  0.76569333  0.75000000  0.51836778  1
  F  F11  1  0.73430667  0.25000000  0.01836778  1
  F  F12  1  0.93436756  0.59653327  0.62836854  1
  F  F13  1  0.56563244  0.40346673  0.12836854  1
  F  F14  1  0.06563244  0.09653327  0.37163146  1
  F  F15  1  0.43436756  0.90346673  0.87163146  1
  F  F16  1  0.06563244  0.40346673  0.37163146  1
  F  F17  1  0.43436756  0.59653327  0.87163146  1
  F  F18  1  0.93436756  0.90346673  0.62836854  1
  F  F19  1  0.56563244  0.09653327  0.12836854  1
  F  F20  1  0.00000000  0.00000000  0.50000000  1
  F  F21  1  0.50000000  -0.00000000  -0.00000000  1
  F  F22  1  0.00000000  0.50000000  0.50000000  1
  F  F23  1  0.50000000  0.50000000  0.00000000  1
  Li  Li24  1  0.82239403  0.52077410  0.64836584  1
  Li  Li25  1  -0.32239403  -0.52077410  1.14836584  1
  Li  Li26  1  -0.82239403  1.02077410  -0.64836584  1
  Li  Li27  1  1.32239403  -0.02077410  -0.14836584  1
  Li  Li28  1  -0.82239403  -0.52077410  -0.64836584  1
  Li  Li29  1  1.32239403  0.52077410  -0.14836584  1
  Li  Li30  1  0.82239403  -0.02077410  0.64836584  1
  Li  Li31  1  -0.32239403  1.02077410  1.14836584  1
  Li  Li32  1  0.53477672  0.25000000  0.81119786  1
  Li  Li33  1  0.96522328  0.75000000  0.31119786  1
  Li  Li34  1  0.46522328  0.75000000  0.18880214  1
  Li  Li35  1  0.03477672  0.25000000  0.68880214  1
  Li  Li36  1  0.61539001  0.25000000  0.33298149  1
  Li  Li37  1  0.88460999  0.75000000  0.83298149  1
  Li  Li38  1  0.38460999  0.75000000  0.66701851  1
  Li  Li39  1  0.11539001  0.25000000  0.16701851  1
  Li  Li40  1  0.99055480  0.25000000  0.97020933  1
  Li  Li41  1  0.50944520  0.75000000  0.47020933  1
  Li  Li42  1  0.00944520  0.75000000  0.02979067  1
  Li  Li43  1  0.49055480  0.25000000  0.52979067  1
  Li  Li44  1  0.00000000  0.00000000  0.00000000  1
  Li  Li45  1  0.50000000  -0.00000000  0.50000000  1
  Li  Li46  1  0.00000000  0.50000000  0.00000000  1
  Li  Li47  1  0.50000000  0.50000000  0.50000000  1
