# generated using pymatgen
data_Li2Si4Te3F12
_symmetry_space_group_name_H-M   'P 1'
_cell_length_a   15.19736422
_cell_length_b   15.19736422
_cell_length_c   6.97169219
_cell_angle_alpha   90.00000000
_cell_angle_beta   90.00000000
_cell_angle_gamma   90.00000000
_symmetry_Int_Tables_number   1
_chemical_formula_structural   Li2Si4Te3F12
_chemical_formula_sum   'Li8 Si16 Te12 F48'
_cell_volume   1610.18118617
_cell_formula_units_Z   4
loop_
 _symmetry_equiv_pos_site_id
 _symmetry_equiv_pos_as_xyz
  1  'x, y, z'
loop_
 _atom_site_type_symbol
 _atom_site_label
 _atom_site_symmetry_multiplicity
 _atom_site_fract_x
 _atom_site_fract_y
 _atom_site_fract_z
 _atom_site_occupancy
  F  F0  1  0.80657474  0.57978543  0.75547027  1
  F  F1  1  -0.30657474  -0.57978543  1.25547027  1
  F  F2  1  -0.32978543  1.55657474  1.00547027  1
  F  F3  1  0.82978543  -0.55657474  1.50547027  1
  F  F4  1  -0.30657474  0.57978543  -0.25547027  1
  F  F5  1  0.80657474  -0.57978543  -0.75547027  1
  F  F6  1  0.82978543  1.55657474  -0.50547027  1
  F  F7  1  -0.32978543  -0.55657474  -0.00547027  1
  F  F8  1  -0.80657474  -0.57978543  -0.75547027  1
  F  F9  1  1.30657474  0.57978543  -0.25547027  1
  F  F10  1  1.32978543  -0.55657474  -0.00547027  1
  F  F11  1  0.17021457  1.55657474  -0.50547027  1
  F  F12  1  1.30657474  -0.57978543  1.25547027  1
  F  F13  1  -0.80657474  0.57978543  0.75547027  1
  F  F14  1  0.17021457  -0.55657474  1.50547027  1
  F  F15  1  1.32978543  1.55657474  1.00547027  1
  F  F16  1  1.30657474  1.07978543  1.25547027  1
  F  F17  1  0.19342526  -0.07978543  1.75547027  1
  F  F18  1  0.17021457  2.05657474  1.50547027  1
  F  F19  1  1.32978543  -0.05657474  2.00547027  1
  F  F20  1  0.19342526  1.07978543  0.24452973  1
  F  F21  1  1.30657474  -0.07978543  -0.25547027  1
  F  F22  1  1.32978543  2.05657474  -0.00547027  1
  F  F23  1  0.17021457  -0.05657474  0.49452973  1
  F  F24  1  -0.30657474  -0.07978543  -0.25547027  1
  F  F25  1  1.80657474  1.07978543  0.24452973  1
  F  F26  1  1.82978543  -0.05657474  0.49452973  1
  F  F27  1  0.67021457  2.05657474  -0.00547027  1
  F  F28  1  1.80657474  -0.07978543  1.75547027  1
  F  F29  1  -0.30657474  1.07978543  1.25547027  1
  F  F30  1  0.67021457  -0.05657474  2.00547027  1
  F  F31  1  1.82978543  2.05657474  1.50547027  1
  F  F32  1  0.00000000  0.03301515  0.72510314  1
  F  F33  1  0.50000000  0.96698485  0.22510314  1
  F  F34  1  0.21698485  0.75000000  0.97510314  1
  F  F35  1  0.28301515  0.25000000  0.47510314  1
  F  F36  1  0.50000000  0.03301515  0.77489686  1
  F  F37  1  0.00000000  0.96698485  0.27489686  1
  F  F38  1  0.28301515  0.75000000  0.52489686  1
  F  F39  1  0.21698485  0.25000000  0.02489686  1
  F  F40  1  0.50000000  0.53301515  0.22510314  1
  F  F41  1  0.00000000  0.46698485  0.72510314  1
  F  F42  1  0.71698485  0.25000000  0.47510314  1
  F  F43  1  0.78301515  0.75000000  0.97510314  1
  F  F44  1  0.00000000  0.53301515  0.27489686  1
  F  F45  1  0.50000000  0.46698485  0.77489686  1
  F  F46  1  0.78301515  0.25000000  0.02489686  1
  F  F47  1  0.71698485  0.75000000  0.52489686  1
  Li  Li48  1  0.00000000  0.00000000  0.50000000  1
  Li  Li49  1  0.50000000  0.00000000  0.00000000  1
  Li  Li50  1  0.25000000  0.75000000  0.75000000  1
  Li  Li51  1  0.25000000  0.25000000  0.25000000  1
  Li  Li52  1  0.50000000  0.50000000  0.00000000  1
  Li  Li53  1  0.00000000  0.50000000  0.50000000  1
  Li  Li54  1  0.75000000  0.25000000  0.25000000  1
  Li  Li55  1  0.75000000  0.75000000  0.75000000  1
  Si  Si56  1  0.23619039  0.48619039  0.87500000  1
  Si  Si57  1  0.26380961  0.51380961  0.37500000  1
  Si  Si58  1  0.76380961  0.98619039  0.12500000  1
  Si  Si59  1  0.73619039  0.01380961  0.62500000  1
  Si  Si60  1  0.76380961  0.51380961  0.12500000  1
  Si  Si61  1  0.73619039  0.48619039  0.62500000  1
  Si  Si62  1  0.23619039  0.01380961  0.87500000  1
  Si  Si63  1  0.26380961  0.98619039  0.37500000  1
  Si  Si64  1  0.73619039  0.98619039  0.37500000  1
  Si  Si65  1  0.76380961  0.01380961  0.87500000  1
  Si  Si66  1  0.26380961  0.48619039  0.62500000  1
  Si  Si67  1  0.23619039  0.51380961  0.12500000  1
  Si  Si68  1  0.26380961  0.01380961  0.62500000  1
  Si  Si69  1  0.23619039  0.98619039  0.12500000  1
  Si  Si70  1  0.73619039  0.51380961  0.37500000  1
  Si  Si71  1  0.76380961  0.48619039  0.87500000  1
  Te  Te72  1  0.00000000  0.25000000  0.02287013  1
  Te  Te73  1  0.00000000  0.75000000  0.27287013  1
  Te  Te74  1  0.50000000  0.25000000  0.47712987  1
  Te  Te75  1  0.50000000  0.75000000  0.22712987  1
  Te  Te76  1  0.50000000  0.75000000  0.52287013  1
  Te  Te77  1  0.50000000  0.25000000  0.77287013  1
  Te  Te78  1  0.00000000  0.75000000  0.97712987  1
  Te  Te79  1  0.00000000  0.25000000  0.72712987  1
  Te  Te80  1  0.00000000  0.25000000  0.37500000  1
  Te  Te81  1  0.00000000  0.75000000  0.62500000  1
  Te  Te82  1  0.50000000  0.75000000  0.87500000  1
  Te  Te83  1  0.50000000  0.25000000  0.12500000  1
