# generated using pymatgen
data_LiF
_symmetry_space_group_name_H-M   'P 1'
_cell_length_a   6.24484491
_cell_length_b   6.24484491
_cell_length_c   22.32386809
_cell_angle_alpha   90.00000000
_cell_angle_beta   90.00000000
_cell_angle_gamma   120.00000000
_symmetry_Int_Tables_number   1
_chemical_formula_structural   LiF
_chemical_formula_sum   'Li27 F27'
_cell_volume   753.95147207
_cell_formula_units_Z   27
loop_
 _symmetry_equiv_pos_site_id
 _symmetry_equiv_pos_as_xyz
  1  'x, y, z'
loop_
 _atom_site_type_symbol
 _atom_site_label
 _atom_site_symmetry_multiplicity
 _atom_site_fract_x
 _atom_site_fract_y
 _atom_site_fract_z
 _atom_site_occupancy
  F  F0  1  0.71887099  0.87675071  -0.00000000  1
  F  F1  1  0.12324929  0.84212028  0.00000000  1
  F  F2  1  0.15787972  0.28112901  -0.00000000  1
  F  F3  1  0.87675071  0.71887099  -0.00000000  1
  F  F4  1  0.84212028  0.12324929  -0.00000000  1
  F  F5  1  0.28112901  0.15787972  0.00000000  1
  F  F6  1  0.10832193  0.00000000  0.73335681  1
  F  F7  1  0.00000000  0.10832193  0.73335681  1
  F  F8  1  0.89167807  0.89167807  0.73335681  1
  F  F9  1  0.10832193  0.00000000  0.26664319  1
  F  F10  1  0.00000000  0.10832193  0.26664319  1
  F  F11  1  0.89167807  0.89167807  0.26664319  1
  F  F12  1  0.25801610  0.65030110  0.64376984  1
  F  F13  1  0.34969890  0.60771500  0.64376984  1
  F  F14  1  0.39228500  0.74198390  0.64376984  1
  F  F15  1  0.25801610  0.65030110  0.35623016  1
  F  F16  1  0.34969890  0.60771500  0.35623016  1
  F  F17  1  0.39228500  0.74198390  0.35623016  1
  F  F18  1  0.65030110  0.25801610  0.35623016  1
  F  F19  1  0.60771500  0.34969890  0.35623016  1
  F  F20  1  0.74198390  0.39228500  0.35623016  1
  F  F21  1  0.65030110  0.25801610  0.64376984  1
  F  F22  1  0.60771500  0.34969890  0.64376984  1
  F  F23  1  0.74198390  0.39228500  0.64376984  1
  F  F24  1  0.82322326  0.00000000  0.00000000  1
  F  F25  1  0.00000000  0.82322326  0.00000000  1
  F  F26  1  0.17677674  0.17677674  0.00000000  1
  Li  Li27  1  0.50192200  0.75792400  0.44288852  1
  Li  Li28  1  -0.75792400  -0.25600200  0.44288852  1
  Li  Li29  1  0.25600200  -0.50192200  0.44288852  1
  Li  Li30  1  0.50192200  0.75792400  -0.44288852  1
  Li  Li31  1  -0.75792400  -0.25600200  -0.44288852  1
  Li  Li32  1  0.25600200  -0.50192200  -0.44288852  1
  Li  Li33  1  0.75792400  0.50192200  -0.44288852  1
  Li  Li34  1  -0.25600200  -0.75792400  -0.44288852  1
  Li  Li35  1  -0.50192200  0.25600200  -0.44288852  1
  Li  Li36  1  0.75792400  0.50192200  0.44288852  1
  Li  Li37  1  -0.25600200  -0.75792400  0.44288852  1
  Li  Li38  1  -0.50192200  0.25600200  0.44288852  1
  Li  Li39  1  0.82309226  0.31059004  0.91864351  1
  Li  Li40  1  0.68940996  0.51250223  0.91864351  1
  Li  Li41  1  0.48749777  0.17690774  0.91864351  1
  Li  Li42  1  0.82309226  0.31059004  0.08135649  1
  Li  Li43  1  0.68940996  0.51250223  0.08135649  1
  Li  Li44  1  0.48749777  0.17690774  0.08135649  1
  Li  Li45  1  0.31059004  0.82309226  0.08135649  1
  Li  Li46  1  0.51250223  0.68940996  0.08135649  1
  Li  Li47  1  0.17690774  0.48749777  0.08135649  1
  Li  Li48  1  0.31059004  0.82309226  0.91864351  1
  Li  Li49  1  0.51250223  0.68940996  0.91864351  1
  Li  Li50  1  0.17690774  0.48749777  0.91864351  1
  Li  Li51  1  0.00000000  0.00000000  0.62081969  1
  Li  Li52  1  0.00000000  0.00000000  0.37918031  1
  Li  Li53  1  0.00000000  0.00000000  0.50000000  1
