# generated using pymatgen
data_LiF
_symmetry_space_group_name_H-M   'P 1'
_cell_length_a   8.56876824
_cell_length_b   8.56876824
_cell_length_c   7.37014332
_cell_angle_alpha   90.00000000
_cell_angle_beta   90.00000000
_cell_angle_gamma   120.00000000
_symmetry_Int_Tables_number   1
_chemical_formula_structural   LiF
_chemical_formula_sum   'Li22 F22'
_cell_volume   468.64432114
_cell_formula_units_Z   22
loop_
 _symmetry_equiv_pos_site_id
 _symmetry_equiv_pos_as_xyz
  1  'x, y, z'
loop_
 _atom_site_type_symbol
 _atom_site_label
 _atom_site_symmetry_multiplicity
 _atom_site_fract_x
 _atom_site_fract_y
 _atom_site_fract_z
 _atom_site_occupancy
  F  F0  1  0.26212600  0.24805372  0.82977340  1
  F  F1  1  0.75194628  0.01407228  0.82977340  1
  F  F2  1  0.98592772  0.73787400  0.82977340  1
  F  F3  1  0.75194628  0.73787400  0.17022660  1
  F  F4  1  0.98592772  0.24805372  0.17022660  1
  F  F5  1  0.26212600  0.01407228  0.17022660  1
  F  F6  1  0.66666667  0.33333333  0.50000000  1
  F  F7  1  0.00000000  0.00000000  0.50000000  1
  F  F8  1  0.30634262  0.96258815  0.80439508  1
  F  F9  1  0.03741185  0.34375447  0.80439508  1
  F  F10  1  0.65624553  0.69365738  0.80439508  1
  F  F11  1  0.03741185  0.69365738  0.19560492  1
  F  F12  1  0.65624553  0.96258815  0.19560492  1
  F  F13  1  0.30634262  0.34375447  0.19560492  1
  F  F14  1  0.68191038  0.49096252  0.37487038  1
  F  F15  1  0.50903748  0.19094787  0.37487038  1
  F  F16  1  0.80905213  0.31808962  0.37487038  1
  F  F17  1  0.50903748  0.31808962  0.62512962  1
  F  F18  1  0.80905213  0.49096252  0.62512962  1
  F  F19  1  0.68191038  0.19094787  0.62512962  1
  F  F20  1  0.66666667  0.33333333  0.13976519  1
  F  F21  1  0.66666667  0.33333333  0.86023481  1
  Li  Li22  1  0.94378783  0.64808533  0.56501015  1
  Li  Li23  1  -0.64808533  0.29570250  0.56501015  1
  Li  Li24  1  -0.29570250  -0.94378783  0.56501015  1
  Li  Li25  1  -0.64808533  -0.94378783  -0.56501015  1
  Li  Li26  1  -0.29570250  0.64808533  -0.56501015  1
  Li  Li27  1  0.94378783  0.29570250  -0.56501015  1
  Li  Li28  1  0.33333333  0.66666667  0.40383942  1
  Li  Li29  1  0.33333333  0.66666667  0.59616058  1
  Li  Li30  1  0.92907286  0.55942006  0.83780323  1
  Li  Li31  1  0.44057994  0.36965280  0.83780323  1
  Li  Li32  1  0.63034720  0.07092714  0.83780323  1
  Li  Li33  1  0.44057994  0.07092714  0.16219677  1
  Li  Li34  1  0.63034720  0.55942006  0.16219677  1
  Li  Li35  1  0.92907286  0.36965280  0.16219677  1
  Li  Li36  1  0.89190373  0.09471717  0.29879942  1
  Li  Li37  1  0.90528283  0.79718656  0.29879942  1
  Li  Li38  1  0.20281344  0.10809627  0.29879942  1
  Li  Li39  1  0.90528283  0.10809627  0.70120058  1
  Li  Li40  1  0.20281344  0.09471717  0.70120058  1
  Li  Li41  1  0.89190373  0.79718656  0.70120058  1
  Li  Li42  1  0.66666667  0.33333333  0.00000000  1
  Li  Li43  1  0.33333333  0.66666667  0.00000000  1
