# generated using pymatgen
data_Li4TeF2
_symmetry_space_group_name_H-M   'P 1'
_cell_length_a   14.01596459
_cell_length_b   14.01596459
_cell_length_c   14.01596459
_cell_angle_alpha   90.00000000
_cell_angle_beta   90.00000000
_cell_angle_gamma   90.00000000
_symmetry_Int_Tables_number   1
_chemical_formula_structural   Li4TeF2
_chemical_formula_sum   'Li96 Te24 F48'
_cell_volume   2753.39788509
_cell_formula_units_Z   24
loop_
 _symmetry_equiv_pos_site_id
 _symmetry_equiv_pos_as_xyz
  1  'x, y, z'
loop_
 _atom_site_type_symbol
 _atom_site_label
 _atom_site_symmetry_multiplicity
 _atom_site_fract_x
 _atom_site_fract_y
 _atom_site_fract_z
 _atom_site_occupancy
  F  F0  1  0.12500000  0.80151200  0.44848800  1
  F  F1  1  0.37500000  0.19848800  0.94848800  1
  F  F2  1  0.87500000  0.30151200  0.05151200  1
  F  F3  1  0.62500000  0.69848800  0.55151200  1
  F  F4  1  0.44848800  0.12500000  0.80151200  1
  F  F5  1  0.94848800  0.37500000  0.19848800  1
  F  F6  1  0.05151200  0.87500000  0.30151200  1
  F  F7  1  0.55151200  0.62500000  0.69848800  1
  F  F8  1  0.80151200  0.44848800  0.12500000  1
  F  F9  1  0.19848800  0.94848800  0.37500000  1
  F  F10  1  0.30151200  0.05151200  0.87500000  1
  F  F11  1  0.69848800  0.55151200  0.62500000  1
  F  F12  1  0.62500000  0.30151200  0.94848800  1
  F  F13  1  0.87500000  0.69848800  0.44848800  1
  F  F14  1  0.37500000  0.80151200  0.55151200  1
  F  F15  1  0.12500000  0.19848800  0.05151200  1
  F  F16  1  0.94848800  0.62500000  0.30151200  1
  F  F17  1  0.44848800  0.87500000  0.69848800  1
  F  F18  1  0.55151200  0.37500000  0.80151200  1
  F  F19  1  0.05151200  0.12500000  0.19848800  1
  F  F20  1  0.30151200  0.94848800  0.62500000  1
  F  F21  1  0.69848800  0.44848800  0.87500000  1
  F  F22  1  0.80151200  0.55151200  0.37500000  1
  F  F23  1  0.19848800  0.05151200  0.12500000  1
  F  F24  1  0.76229513  0.00000000  0.25000000  1
  F  F25  1  0.73770487  0.00000000  0.75000000  1
  F  F26  1  0.25000000  0.76229513  0.00000000  1
  F  F27  1  0.75000000  0.73770487  0.00000000  1
  F  F28  1  0.00000000  0.25000000  0.76229513  1
  F  F29  1  0.00000000  0.75000000  0.73770487  1
  F  F30  1  0.75000000  0.01229513  0.00000000  1
  F  F31  1  0.75000000  0.98770487  0.50000000  1
  F  F32  1  0.51229513  0.50000000  0.25000000  1
  F  F33  1  0.48770487  -0.00000000  0.25000000  1
  F  F34  1  0.00000000  0.25000000  0.48770487  1
  F  F35  1  0.50000000  0.25000000  0.51229513  1
  F  F36  1  0.26229513  0.50000000  0.75000000  1
  F  F37  1  0.23770487  0.50000000  0.25000000  1
  F  F38  1  0.75000000  0.26229513  0.50000000  1
  F  F39  1  0.25000000  0.23770487  0.50000000  1
  F  F40  1  0.50000000  0.75000000  0.26229513  1
  F  F41  1  0.50000000  0.25000000  0.23770487  1
  F  F42  1  0.25000000  0.51229513  0.50000000  1
  F  F43  1  0.25000000  0.48770487  -0.00000000  1
  F  F44  1  0.01229513  -0.00000000  0.75000000  1
  F  F45  1  0.98770487  0.50000000  0.75000000  1
  F  F46  1  0.50000000  0.75000000  0.98770487  1
  F  F47  1  0.00000000  0.75000000  0.01229513  1
  Li  Li48  1  0.12500000  0.65587084  0.59412916  1
  Li  Li49  1  0.37500000  0.34412916  0.09412916  1
  Li  Li50  1  0.87500000  0.15587084  0.90587084  1
  Li  Li51  1  0.62500000  0.84412916  0.40587084  1
  Li  Li52  1  0.59412916  0.12500000  0.65587084  1
  Li  Li53  1  0.09412916  0.37500000  0.34412916  1
  Li  Li54  1  0.90587084  0.87500000  0.15587084  1
  Li  Li55  1  0.40587084  0.62500000  0.84412916  1
  Li  Li56  1  0.65587084  0.59412916  0.12500000  1
  Li  Li57  1  0.34412916  0.09412916  0.37500000  1
  Li  Li58  1  0.15587084  0.90587084  0.87500000  1
  Li  Li59  1  0.84412916  0.40587084  0.62500000  1
  Li  Li60  1  0.62500000  0.15587084  0.09412916  1
  Li  Li61  1  0.87500000  0.84412916  0.59412916  1
  Li  Li62  1  0.37500000  0.65587084  0.40587084  1
  Li  Li63  1  0.12500000  0.34412916  0.90587084  1
  Li  Li64  1  0.09412916  0.62500000  0.15587084  1
  Li  Li65  1  0.59412916  0.87500000  0.84412916  1
  Li  Li66  1  0.40587084  0.37500000  0.65587084  1
  Li  Li67  1  0.90587084  0.12500000  0.34412916  1
  Li  Li68  1  0.15587084  0.09412916  0.62500000  1
  Li  Li69  1  0.84412916  0.59412916  0.87500000  1
  Li  Li70  1  0.65587084  0.40587084  0.37500000  1
  Li  Li71  1  0.34412916  0.90587084  0.12500000  1
  Li  Li72  1  0.05082434  -0.00000000  0.25000000  1
  Li  Li73  1  0.44917566  -0.00000000  0.75000000  1
  Li  Li74  1  0.25000000  0.05082434  -0.00000000  1
  Li  Li75  1  0.75000000  0.44917566  -0.00000000  1
  Li  Li76  1  0.00000000  0.25000000  0.05082434  1
  Li  Li77  1  0.00000000  0.75000000  0.44917566  1
  Li  Li78  1  0.75000000  0.30082434  0.00000000  1
  Li  Li79  1  0.75000000  0.69917566  0.50000000  1
  Li  Li80  1  0.80082434  0.50000000  0.25000000  1
  Li  Li81  1  0.19917566  0.00000000  0.25000000  1
  Li  Li82  1  0.00000000  0.25000000  0.19917566  1
  Li  Li83  1  0.50000000  0.25000000  0.80082434  1
  Li  Li84  1  0.55082434  0.50000000  0.75000000  1
  Li  Li85  1  0.94917566  0.50000000  0.25000000  1
  Li  Li86  1  0.75000000  0.55082434  0.50000000  1
  Li  Li87  1  0.25000000  0.94917566  0.50000000  1
  Li  Li88  1  0.50000000  0.75000000  0.55082434  1
  Li  Li89  1  0.50000000  0.25000000  0.94917566  1
  Li  Li90  1  0.25000000  0.80082434  0.50000000  1
  Li  Li91  1  0.25000000  0.19917566  0.00000000  1
  Li  Li92  1  0.30082434  0.00000000  0.75000000  1
  Li  Li93  1  0.69917566  0.50000000  0.75000000  1
  Li  Li94  1  0.50000000  0.75000000  0.69917566  1
  Li  Li95  1  0.00000000  0.75000000  0.30082434  1
  Li  Li96  1  0.31531162  0.12181637  0.63574329  1
  Li  Li97  1  0.18468838  -0.12181637  1.13574329  1
  Li  Li98  1  -0.31531162  0.62181637  -0.13574329  1
  Li  Li99  1  0.81531162  0.37818363  -0.63574329  1
  Li  Li100  1  0.63574329  0.31531162  0.12181637  1
  Li  Li101  1  1.13574329  0.18468838  -0.12181637  1
  Li  Li102  1  -0.13574329  -0.31531162  0.62181637  1
  Li  Li103  1  -0.63574329  0.81531162  0.37818363  1
  Li  Li104  1  0.12181637  0.63574329  0.31531162  1
  Li  Li105  1  -0.12181637  1.13574329  0.18468838  1
  Li  Li106  1  0.62181637  -0.13574329  -0.31531162  1
  Li  Li107  1  0.37818363  -0.63574329  0.81531162  1
  Li  Li108  1  0.87181637  0.56531162  -0.38574329  1
  Li  Li109  1  0.62818363  0.43468838  0.11425671  1
  Li  Li110  1  0.37181637  -0.06531162  1.38574329  1
  Li  Li111  1  0.12818363  1.06531162  0.88574329  1
  Li  Li112  1  1.06531162  0.88574329  0.12818363  1
  Li  Li113  1  -0.06531162  1.38574329  0.37181637  1
  Li  Li114  1  0.43468838  0.11425671  0.62818363  1
  Li  Li115  1  0.56531162  -0.38574329  0.87181637  1
  Li  Li116  1  1.38574329  0.37181637  -0.06531162  1
  Li  Li117  1  0.88574329  0.12818363  1.06531162  1
  Li  Li118  1  -0.38574329  0.87181637  0.56531162  1
  Li  Li119  1  0.11425671  0.62818363  0.43468838  1
  Li  Li120  1  0.81531162  0.62181637  1.13574329  1
  Li  Li121  1  0.68468838  0.37818363  1.63574329  1
  Li  Li122  1  0.18468838  1.12181637  0.36425671  1
  Li  Li123  1  1.31531162  0.87818363  -0.13574329  1
  Li  Li124  1  1.13574329  0.81531162  0.62181637  1
  Li  Li125  1  1.63574329  0.68468838  0.37818363  1
  Li  Li126  1  0.36425671  0.18468838  1.12181637  1
  Li  Li127  1  -0.13574329  1.31531162  0.87818363  1
  Li  Li128  1  0.62181637  1.13574329  0.81531162  1
  Li  Li129  1  0.37818363  1.63574329  0.68468838  1
  Li  Li130  1  1.12181637  0.36425671  0.18468838  1
  Li  Li131  1  0.87818363  -0.13574329  1.31531162  1
  Li  Li132  1  1.37181637  1.06531162  0.11425671  1
  Li  Li133  1  1.12818363  0.93468838  0.61425671  1
  Li  Li134  1  0.87181637  0.43468838  1.88574329  1
  Li  Li135  1  0.62818363  1.56531162  1.38574329  1
  Li  Li136  1  1.56531162  1.38574329  0.62818363  1
  Li  Li137  1  0.43468838  1.88574329  0.87181637  1
  Li  Li138  1  0.93468838  0.61425671  1.12818363  1
  Li  Li139  1  1.06531162  0.11425671  1.37181637  1
  Li  Li140  1  1.88574329  0.87181637  0.43468838  1
  Li  Li141  1  1.38574329  0.62818363  1.56531162  1
  Li  Li142  1  0.11425671  1.37181637  1.06531162  1
  Li  Li143  1  0.61425671  1.12818363  0.93468838  1
  Te  Te144  1  0.87500000  0.87500000  0.87500000  1
  Te  Te145  1  0.62500000  0.12500000  0.37500000  1
  Te  Te146  1  0.12500000  0.37500000  0.62500000  1
  Te  Te147  1  0.37500000  0.62500000  0.12500000  1
  Te  Te148  1  0.37500000  0.37500000  0.37500000  1
  Te  Te149  1  0.12500000  0.62500000  0.87500000  1
  Te  Te150  1  0.62500000  0.87500000  0.12500000  1
  Te  Te151  1  0.87500000  0.12500000  0.62500000  1
  Te  Te152  1  0.17271726  0.17271726  0.17271726  1
  Te  Te153  1  0.32728274  0.82728274  0.67271726  1
  Te  Te154  1  0.82728274  0.67271726  0.32728274  1
  Te  Te155  1  0.67271726  0.32728274  0.82728274  1
  Te  Te156  1  0.92271726  0.42271726  0.07728274  1
  Te  Te157  1  0.57728274  0.57728274  0.57728274  1
  Te  Te158  1  0.42271726  0.07728274  0.92271726  1
  Te  Te159  1  0.07728274  0.92271726  0.42271726  1
  Te  Te160  1  0.67271726  0.67271726  0.67271726  1
  Te  Te161  1  0.82728274  0.32728274  0.17271726  1
  Te  Te162  1  0.32728274  0.17271726  0.82728274  1
  Te  Te163  1  0.17271726  0.82728274  0.32728274  1
  Te  Te164  1  0.42271726  0.92271726  0.57728274  1
  Te  Te165  1  0.07728274  0.07728274  0.07728274  1
  Te  Te166  1  0.92271726  0.57728274  0.42271726  1
  Te  Te167  1  0.57728274  0.42271726  0.92271726  1
