# generated using pymatgen
data_LiY2(Te2P)2
_symmetry_space_group_name_H-M   'P 1'
_cell_length_a   3.97050922
_cell_length_b   4.20492374
_cell_length_c   6.65776798
_cell_angle_alpha   96.48004582
_cell_angle_beta   103.60648015
_cell_angle_gamma   115.23467762
_symmetry_Int_Tables_number   1
_chemical_formula_structural   LiY2(Te2P)2
_chemical_formula_sum   'Li1 Y2 Te4 P2'
_cell_volume   94.81076156
_cell_formula_units_Z   1
loop_
 _symmetry_equiv_pos_site_id
 _symmetry_equiv_pos_as_xyz
  1  'x, y, z'
loop_
 _atom_site_type_symbol
 _atom_site_label
 _atom_site_symmetry_multiplicity
 _atom_site_fract_x
 _atom_site_fract_y
 _atom_site_fract_z
 _atom_site_occupancy
  P  P0  1  0.12500000  0.12500000  0.12500000  1
  P  P1  1  0.50000000  0.50000000  0.50000000  1
  Te  Te2  1  0.25000000  0.25000000  0.25000000  1
  Te  Te3  1  0.75000000  0.75000000  0.75000000  1
  Te  Te4  1  0.56187520  0.11791008  0.67719196  1
  Te  Te5  1  0.69792116  0.19224829  0.76124958  1
  Li  Li6  1  0.64056263  0.91651994  0.19345769  1
  Y  Y7  1  0.50330430  0.61370459  0.81719696  1
  Y  Y8  1  0.14313745  0.89073966  0.55053114  1
