# generated using pymatgen
data_LiF
_symmetry_space_group_name_H-M   'P 1'
_cell_length_a   10.38510202
_cell_length_b   10.38510202
_cell_length_c   4.81950876
_cell_angle_alpha   90.00000000
_cell_angle_beta   90.00000000
_cell_angle_gamma   120.00000000
_symmetry_Int_Tables_number   1
_chemical_formula_structural   LiF
_chemical_formula_sum   'Li28 F28'
_cell_volume   450.14760111
_cell_formula_units_Z   28
loop_
 _symmetry_equiv_pos_site_id
 _symmetry_equiv_pos_as_xyz
  1  'x, y, z'
loop_
 _atom_site_type_symbol
 _atom_site_label
 _atom_site_symmetry_multiplicity
 _atom_site_fract_x
 _atom_site_fract_y
 _atom_site_fract_z
 _atom_site_occupancy
  F  F0  1  0.00000000  0.00000000  0.00000000  1
  F  F1  1  0.00000000  0.00000000  0.50000000  1
  F  F2  1  0.41443588  0.90836313  0.53487824  1
  F  F3  1  -0.90836313  -0.49392725  0.53487824  1
  F  F4  1  0.49392725  -0.41443588  0.53487824  1
  F  F5  1  -0.41443588  -0.90836313  1.03487824  1
  F  F6  1  0.90836313  0.49392725  1.03487824  1
  F  F7  1  -0.49392725  0.41443588  1.03487824  1
  F  F8  1  -0.41443588  -0.90836313  -0.53487824  1
  F  F9  1  0.90836313  0.49392725  -0.53487824  1
  F  F10  1  -0.49392725  0.41443588  -0.53487824  1
  F  F11  1  0.41443588  0.90836313  -0.03487824  1
  F  F12  1  -0.90836313  -0.49392725  -0.03487824  1
  F  F13  1  0.49392725  -0.41443588  -0.03487824  1
  F  F14  1  0.07246638  0.65638748  0.50848320  1
  F  F15  1  0.34361252  0.41607890  0.50848320  1
  F  F16  1  0.58392110  0.92753362  0.50848320  1
  F  F17  1  0.92753362  0.34361252  0.00848320  1
  F  F18  1  0.65638748  0.58392110  0.00848320  1
  F  F19  1  0.41607890  0.07246638  0.00848320  1
  F  F20  1  0.92753362  0.34361252  0.49151680  1
  F  F21  1  0.65638748  0.58392110  0.49151680  1
  F  F22  1  0.41607890  0.07246638  0.49151680  1
  F  F23  1  0.07246638  0.65638748  0.99151680  1
  F  F24  1  0.34361252  0.41607890  0.99151680  1
  F  F25  1  0.58392110  0.92753362  0.99151680  1
  F  F26  1  0.66666667  0.33333333  0.25000000  1
  F  F27  1  0.33333333  0.66666667  0.75000000  1
  Li  Li28  1  0.98782009  0.69101190  0.25000000  1
  Li  Li29  1  0.30898810  0.29680818  0.25000000  1
  Li  Li30  1  0.70319182  0.01217991  0.25000000  1
  Li  Li31  1  0.01217991  0.30898810  0.75000000  1
  Li  Li32  1  0.69101190  0.70319182  0.75000000  1
  Li  Li33  1  0.29680818  0.98782009  0.75000000  1
  Li  Li34  1  0.43420959  0.50367131  0.25000000  1
  Li  Li35  1  0.49632869  0.93053828  0.25000000  1
  Li  Li36  1  0.06946172  0.56579041  0.25000000  1
  Li  Li37  1  0.56579041  0.49632869  0.75000000  1
  Li  Li38  1  0.50367131  0.06946172  0.75000000  1
  Li  Li39  1  0.93053828  0.43420959  0.75000000  1
  Li  Li40  1  0.50000000  -0.00000000  0.00000000  1
  Li  Li41  1  0.00000000  0.50000000  0.00000000  1
  Li  Li42  1  0.50000000  0.50000000  0.00000000  1
  Li  Li43  1  0.50000000  -0.00000000  0.50000000  1
  Li  Li44  1  0.00000000  0.50000000  0.50000000  1
  Li  Li45  1  0.50000000  0.50000000  0.50000000  1
  Li  Li46  1  0.62055084  0.51488569  0.25000000  1
  Li  Li47  1  0.48511431  0.10566515  0.25000000  1
  Li  Li48  1  0.89433485  0.37944916  0.25000000  1
  Li  Li49  1  0.37944916  0.48511431  0.75000000  1
  Li  Li50  1  0.51488569  0.89433485  0.75000000  1
  Li  Li51  1  0.10566515  0.62055084  0.75000000  1
  Li  Li52  1  0.33333333  0.66666667  0.25000000  1
  Li  Li53  1  0.66666667  0.33333333  0.75000000  1
  Li  Li54  1  0.00000000  0.00000000  0.25000000  1
  Li  Li55  1  0.00000000  0.00000000  0.75000000  1
