# generated using pymatgen
data_Li4TeF2
_symmetry_space_group_name_H-M   'P 1'
_cell_length_a   14.16042397
_cell_length_b   14.16042397
_cell_length_c   23.46005301
_cell_angle_alpha   90.00000000
_cell_angle_beta   90.00000000
_cell_angle_gamma   120.00000000
_symmetry_Int_Tables_number   1
_chemical_formula_structural   Li4TeF2
_chemical_formula_sum   'Li96 Te24 F48'
_cell_volume   4073.91660050
_cell_formula_units_Z   24
loop_
 _symmetry_equiv_pos_site_id
 _symmetry_equiv_pos_as_xyz
  1  'x, y, z'
loop_
 _atom_site_type_symbol
 _atom_site_label
 _atom_site_symmetry_multiplicity
 _atom_site_fract_x
 _atom_site_fract_y
 _atom_site_fract_z
 _atom_site_occupancy
  F  F0  1  0.84594088  0.33714226  0.25217466  1
  F  F1  1  -0.33714226  0.50879862  0.25217466  1
  F  F2  1  -0.50879862  -0.84594088  0.25217466  1
  F  F3  1  0.84594088  0.33714226  -0.25217466  1
  F  F4  1  -0.33714226  0.50879862  -0.25217466  1
  F  F5  1  -0.50879862  -0.84594088  -0.25217466  1
  F  F6  1  0.33714226  0.84594088  -0.25217466  1
  F  F7  1  0.50879862  -0.33714226  -0.25217466  1
  F  F8  1  -0.84594088  -0.50879862  -0.25217466  1
  F  F9  1  0.33714226  0.84594088  0.25217466  1
  F  F10  1  0.50879862  -0.33714226  0.25217466  1
  F  F11  1  -0.84594088  -0.50879862  0.25217466  1
  F  F12  1  0.33333333  0.66666667  0.00000000  1
  F  F13  1  0.66666667  0.33333333  0.00000000  1
  F  F14  1  0.72318180  0.18636607  0.66095409  1
  F  F15  1  0.81363393  0.53681574  0.66095409  1
  F  F16  1  0.46318426  0.27681820  0.66095409  1
  F  F17  1  0.72318180  0.18636607  0.33904591  1
  F  F18  1  0.81363393  0.53681574  0.33904591  1
  F  F19  1  0.46318426  0.27681820  0.33904591  1
  F  F20  1  0.18636607  0.72318180  0.33904591  1
  F  F21  1  0.53681574  0.81363393  0.33904591  1
  F  F22  1  0.27681820  0.46318426  0.33904591  1
  F  F23  1  0.18636607  0.72318180  0.66095409  1
  F  F24  1  0.53681574  0.81363393  0.66095409  1
  F  F25  1  0.27681820  0.46318426  0.66095409  1
  F  F26  1  0.72779065  0.00000000  0.50000000  1
  F  F27  1  0.00000000  0.72779065  0.50000000  1
  F  F28  1  0.27220935  0.27220935  0.50000000  1
  F  F29  1  0.00000000  0.00000000  0.00000000  1
  F  F30  1  0.24754248  0.88737853  0.10305706  1
  F  F31  1  0.11262147  0.36016395  0.10305706  1
  F  F32  1  0.63983605  0.75245752  0.10305706  1
  F  F33  1  0.24754248  0.88737853  0.89694294  1
  F  F34  1  0.11262147  0.36016395  0.89694294  1
  F  F35  1  0.63983605  0.75245752  0.89694294  1
  F  F36  1  0.88737853  0.24754248  0.89694294  1
  F  F37  1  0.36016395  0.11262147  0.89694294  1
  F  F38  1  0.75245752  0.63983605  0.89694294  1
  F  F39  1  0.88737853  0.24754248  0.10305706  1
  F  F40  1  0.36016395  0.11262147  0.10305706  1
  F  F41  1  0.75245752  0.63983605  0.10305706  1
  F  F42  1  0.19822661  0.00000000  0.96197977  1
  F  F43  1  0.00000000  0.19822661  0.96197977  1
  F  F44  1  0.80177339  0.80177339  0.96197977  1
  F  F45  1  0.19822661  0.00000000  0.03802023  1
  F  F46  1  0.00000000  0.19822661  0.03802023  1
  F  F47  1  0.80177339  0.80177339  0.03802023  1
  Li  Li48  1  0.83265852  0.43717311  0.50000000  1
  Li  Li49  1  0.56282689  0.39548541  0.50000000  1
  Li  Li50  1  0.60451459  0.16734148  0.50000000  1
  Li  Li51  1  0.43717311  0.83265852  0.50000000  1
  Li  Li52  1  0.39548541  0.56282689  0.50000000  1
  Li  Li53  1  0.16734148  0.60451459  0.50000000  1
  Li  Li54  1  0.24247832  0.59142571  0.71159173  1
  Li  Li55  1  0.40857429  0.65105261  0.71159173  1
  Li  Li56  1  0.34894739  0.75752168  0.71159173  1
  Li  Li57  1  0.24247832  0.59142571  0.28840827  1
  Li  Li58  1  0.40857429  0.65105261  0.28840827  1
  Li  Li59  1  0.34894739  0.75752168  0.28840827  1
  Li  Li60  1  0.59142571  0.24247832  0.28840827  1
  Li  Li61  1  0.65105261  0.40857429  0.28840827  1
  Li  Li62  1  0.75752168  0.34894739  0.28840827  1
  Li  Li63  1  0.59142571  0.24247832  0.71159173  1
  Li  Li64  1  0.65105261  0.40857429  0.71159173  1
  Li  Li65  1  0.75752168  0.34894739  0.71159173  1
  Li  Li66  1  0.33861643  0.10831018  0.15029781  1
  Li  Li67  1  0.89168982  0.23030625  0.15029781  1
  Li  Li68  1  0.76969375  0.66138357  0.15029781  1
  Li  Li69  1  0.33861643  0.10831018  0.84970219  1
  Li  Li70  1  0.89168982  0.23030625  0.84970219  1
  Li  Li71  1  0.76969375  0.66138357  0.84970219  1
  Li  Li72  1  0.10831018  0.33861643  0.84970219  1
  Li  Li73  1  0.23030625  0.89168982  0.84970219  1
  Li  Li74  1  0.66138357  0.76969375  0.84970219  1
  Li  Li75  1  0.10831018  0.33861643  0.15029781  1
  Li  Li76  1  0.23030625  0.89168982  0.15029781  1
  Li  Li77  1  0.66138357  0.76969375  0.15029781  1
  Li  Li78  1  0.44997796  0.75971072  0.22169396  1
  Li  Li79  1  0.24028928  0.69026723  0.22169396  1
  Li  Li80  1  0.30973277  0.55002204  0.22169396  1
  Li  Li81  1  0.44997796  0.75971072  0.77830604  1
  Li  Li82  1  0.24028928  0.69026723  0.77830604  1
  Li  Li83  1  0.30973277  0.55002204  0.77830604  1
  Li  Li84  1  0.75971072  0.44997796  0.77830604  1
  Li  Li85  1  0.69026723  0.24028928  0.77830604  1
  Li  Li86  1  0.55002204  0.30973277  0.77830604  1
  Li  Li87  1  0.75971072  0.44997796  0.22169396  1
  Li  Li88  1  0.69026723  0.24028928  0.22169396  1
  Li  Li89  1  0.55002204  0.30973277  0.22169396  1
  Li  Li90  1  0.84772972  0.00000000  0.92731246  1
  Li  Li91  1  0.00000000  0.84772972  0.92731246  1
  Li  Li92  1  0.15227028  0.15227028  0.92731246  1
  Li  Li93  1  0.84772972  0.00000000  0.07268754  1
  Li  Li94  1  0.00000000  0.84772972  0.07268754  1
  Li  Li95  1  0.15227028  0.15227028  0.07268754  1
  Li  Li96  1  0.69008977  0.58371164  0.78277509  1
  Li  Li97  1  0.41628836  0.10637813  0.78277509  1
  Li  Li98  1  0.89362187  0.30991023  0.78277509  1
  Li  Li99  1  0.69008977  0.58371164  0.21722491  1
  Li  Li100  1  0.41628836  0.10637813  0.21722491  1
  Li  Li101  1  0.89362187  0.30991023  0.21722491  1
  Li  Li102  1  0.58371164  0.69008977  0.21722491  1
  Li  Li103  1  0.10637813  0.41628836  0.21722491  1
  Li  Li104  1  0.30991023  0.89362187  0.21722491  1
  Li  Li105  1  0.58371164  0.69008977  0.78277509  1
  Li  Li106  1  0.10637813  0.41628836  0.78277509  1
  Li  Li107  1  0.30991023  0.89362187  0.78277509  1
  Li  Li108  1  0.10080962  0.46387466  0.50000000  1
  Li  Li109  1  0.53612534  0.63693495  0.50000000  1
  Li  Li110  1  0.36306505  0.89919038  0.50000000  1
  Li  Li111  1  0.46387466  0.10080962  0.50000000  1
  Li  Li112  1  0.63693495  0.53612534  0.50000000  1
  Li  Li113  1  0.89919038  0.36306505  0.50000000  1
  Li  Li114  1  0.48375916  0.41550891  0.74730751  1
  Li  Li115  1  0.58449109  0.06825025  0.74730751  1
  Li  Li116  1  0.93174975  0.51624084  0.74730751  1
  Li  Li117  1  0.48375916  0.41550891  0.25269249  1
  Li  Li118  1  0.58449109  0.06825025  0.25269249  1
  Li  Li119  1  0.93174975  0.51624084  0.25269249  1
  Li  Li120  1  0.41550891  0.48375916  0.25269249  1
  Li  Li121  1  0.06825025  0.58449109  0.25269249  1
  Li  Li122  1  0.51624084  0.93174975  0.25269249  1
  Li  Li123  1  0.41550891  0.48375916  0.74730751  1
  Li  Li124  1  0.06825025  0.58449109  0.74730751  1
  Li  Li125  1  0.51624084  0.93174975  0.74730751  1
  Li  Li126  1  0.45578336  0.33177291  0.88992206  1
  Li  Li127  1  0.66822709  0.12401045  0.88992206  1
  Li  Li128  1  0.87598955  0.54421664  0.88992206  1
  Li  Li129  1  0.45578336  0.33177291  0.11007794  1
  Li  Li130  1  0.66822709  0.12401045  0.11007794  1
  Li  Li131  1  0.87598955  0.54421664  0.11007794  1
  Li  Li132  1  0.33177291  0.45578336  0.11007794  1
  Li  Li133  1  0.12401045  0.66822709  0.11007794  1
  Li  Li134  1  0.54421664  0.87598955  0.11007794  1
  Li  Li135  1  0.33177291  0.45578336  0.88992206  1
  Li  Li136  1  0.12401045  0.66822709  0.88992206  1
  Li  Li137  1  0.54421664  0.87598955  0.88992206  1
  Li  Li138  1  0.22530650  0.00000000  0.50000000  1
  Li  Li139  1  0.00000000  0.22530650  0.50000000  1
  Li  Li140  1  0.77469350  0.77469350  0.50000000  1
  Li  Li141  1  0.82684204  0.00000000  -0.00000000  1
  Li  Li142  1  0.00000000  0.82684204  0.00000000  1
  Li  Li143  1  0.17315796  0.17315796  -0.00000000  1
  Te  Te144  1  0.42128770  0.00000000  0.80442686  1
  Te  Te145  1  0.00000000  0.42128770  0.80442686  1
  Te  Te146  1  0.57871230  0.57871230  0.80442686  1
  Te  Te147  1  0.42128770  0.00000000  0.19557314  1
  Te  Te148  1  0.00000000  0.42128770  0.19557314  1
  Te  Te149  1  0.57871230  0.57871230  0.19557314  1
  Te  Te150  1  0.80671856  0.65117778  0.50000000  1
  Te  Te151  1  0.34882222  0.15554078  0.50000000  1
  Te  Te152  1  0.84445922  0.19328144  0.50000000  1
  Te  Te153  1  0.65117778  0.80671856  0.50000000  1
  Te  Te154  1  0.15554078  0.34882222  0.50000000  1
  Te  Te155  1  0.19328144  0.84445922  0.50000000  1
  Te  Te156  1  0.33333333  0.66666667  0.19957997  1
  Te  Te157  1  0.33333333  0.66666667  0.80042003  1
  Te  Te158  1  0.66666667  0.33333333  0.80042003  1
  Te  Te159  1  0.66666667  0.33333333  0.19957997  1
  Te  Te160  1  0.53177635  0.94061968  -0.00000000  1
  Te  Te161  1  0.05938032  0.59115667  0.00000000  1
  Te  Te162  1  0.40884333  0.46822365  -0.00000000  1
  Te  Te163  1  0.94061968  0.53177635  -0.00000000  1
  Te  Te164  1  0.59115667  0.05938032  0.00000000  1
  Te  Te165  1  0.46822365  0.40884333  -0.00000000  1
  Te  Te166  1  0.33333333  0.66666667  0.50000000  1
  Te  Te167  1  0.66666667  0.33333333  0.50000000  1
