# generated using pymatgen
data_LiF
_symmetry_space_group_name_H-M   'P 1'
_cell_length_a   20.26690081
_cell_length_b   20.26690081
_cell_length_c   4.95843124
_cell_angle_alpha   90.00000000
_cell_angle_beta   90.00000000
_cell_angle_gamma   90.00000000
_symmetry_Int_Tables_number   1
_chemical_formula_structural   LiF
_chemical_formula_sum   'Li64 F64'
_cell_volume   2036.66208900
_cell_formula_units_Z   64
loop_
 _symmetry_equiv_pos_site_id
 _symmetry_equiv_pos_as_xyz
  1  'x, y, z'
loop_
 _atom_site_type_symbol
 _atom_site_label
 _atom_site_symmetry_multiplicity
 _atom_site_fract_x
 _atom_site_fract_y
 _atom_site_fract_z
 _atom_site_occupancy
  F  F0  1  0.00000000  0.00000000  0.00000000  1
  F  F1  1  0.50000000  0.00000000  0.50000000  1
  F  F2  1  0.25000000  0.75000000  0.25000000  1
  F  F3  1  0.25000000  0.25000000  0.75000000  1
  F  F4  1  0.50000000  0.00000000  0.00000000  1
  F  F5  1  0.00000000  0.00000000  0.50000000  1
  F  F6  1  0.25000000  0.75000000  0.75000000  1
  F  F7  1  0.25000000  0.25000000  0.25000000  1
  F  F8  1  0.50000000  0.50000000  0.50000000  1
  F  F9  1  0.00000000  0.50000000  0.00000000  1
  F  F10  1  0.75000000  0.25000000  0.75000000  1
  F  F11  1  0.75000000  0.75000000  0.25000000  1
  F  F12  1  0.00000000  0.50000000  0.50000000  1
  F  F13  1  0.50000000  0.50000000  0.00000000  1
  F  F14  1  0.75000000  0.25000000  0.25000000  1
  F  F15  1  0.75000000  0.75000000  0.75000000  1
  F  F16  1  0.18016879  0.07545717  0.89406755  1
  F  F17  1  0.31983121  -0.07545717  1.39406755  1
  F  F18  1  0.17454283  0.93016879  1.14406755  1
  F  F19  1  0.32545717  0.06983121  1.64406755  1
  F  F20  1  0.31983121  0.07545717  -0.89406755  1
  F  F21  1  0.18016879  -0.07545717  -0.39406755  1
  F  F22  1  0.32545717  0.93016879  -0.14406755  1
  F  F23  1  0.17454283  0.06983121  -0.64406755  1
  F  F24  1  -0.18016879  -0.07545717  -0.89406755  1
  F  F25  1  0.68016879  0.07545717  -0.39406755  1
  F  F26  1  0.82545717  0.06983121  -0.14406755  1
  F  F27  1  0.67454283  0.93016879  -0.64406755  1
  F  F28  1  0.68016879  -0.07545717  0.89406755  1
  F  F29  1  -0.18016879  0.07545717  1.39406755  1
  F  F30  1  0.67454283  0.06983121  1.14406755  1
  F  F31  1  0.82545717  0.93016879  1.64406755  1
  F  F32  1  0.68016879  0.57545717  1.39406755  1
  F  F33  1  0.81983121  0.42454283  1.89406755  1
  F  F34  1  0.67454283  1.43016879  1.64406755  1
  F  F35  1  0.82545717  0.56983121  2.14406755  1
  F  F36  1  0.81983121  0.57545717  -0.39406755  1
  F  F37  1  0.68016879  0.42454283  0.10593245  1
  F  F38  1  0.82545717  1.43016879  0.35593245  1
  F  F39  1  0.67454283  0.56983121  -0.14406755  1
  F  F40  1  0.31983121  0.42454283  -0.39406755  1
  F  F41  1  1.18016879  0.57545717  0.10593245  1
  F  F42  1  1.32545717  0.56983121  0.35593245  1
  F  F43  1  1.17454283  1.43016879  -0.14406755  1
  F  F44  1  1.18016879  0.42454283  1.39406755  1
  F  F45  1  0.31983121  0.57545717  1.89406755  1
  F  F46  1  1.17454283  0.56983121  1.64406755  1
  F  F47  1  1.32545717  1.43016879  2.14406755  1
  F  F48  1  0.00000000  0.25000000  0.12500000  1
  F  F49  1  0.00000000  0.75000000  0.37500000  1
  F  F50  1  0.00000000  0.75000000  0.87500000  1
  F  F51  1  0.00000000  0.25000000  0.62500000  1
  F  F52  1  0.50000000  0.75000000  0.62500000  1
  F  F53  1  0.50000000  0.25000000  0.87500000  1
  F  F54  1  0.50000000  0.25000000  0.37500000  1
  F  F55  1  0.50000000  0.75000000  0.12500000  1
  F  F56  1  0.00000000  0.25000000  0.37500000  1
  F  F57  1  0.00000000  0.75000000  0.62500000  1
  F  F58  1  0.50000000  0.25000000  0.62500000  1
  F  F59  1  0.50000000  0.75000000  0.37500000  1
  F  F60  1  0.50000000  0.75000000  0.87500000  1
  F  F61  1  0.50000000  0.25000000  0.12500000  1
  F  F62  1  0.00000000  0.75000000  0.12500000  1
  F  F63  1  0.00000000  0.25000000  0.87500000  1
  Li  Li64  1  0.72016649  0.16817850  0.17906394  1
  Li  Li65  1  0.77983351  0.83182150  0.67906394  1
  Li  Li66  1  0.08182150  0.47016649  0.42906394  1
  Li  Li67  1  0.41817850  0.52983351  0.92906394  1
  Li  Li68  1  0.77983351  0.16817850  0.82093606  1
  Li  Li69  1  0.72016649  0.83182150  0.32093606  1
  Li  Li70  1  0.41817850  0.47016649  0.57093606  1
  Li  Li71  1  0.08182150  0.52983351  0.07093606  1
  Li  Li72  1  0.27983351  0.83182150  0.82093606  1
  Li  Li73  1  0.22016649  0.16817850  0.32093606  1
  Li  Li74  1  0.91817850  0.52983351  0.57093606  1
  Li  Li75  1  0.58182150  0.47016649  0.07093606  1
  Li  Li76  1  0.22016649  0.83182150  0.17906394  1
  Li  Li77  1  0.27983351  0.16817850  0.67906394  1
  Li  Li78  1  0.58182150  0.52983351  0.42906394  1
  Li  Li79  1  0.91817850  0.47016649  0.92906394  1
  Li  Li80  1  0.22016649  0.66817850  0.67906394  1
  Li  Li81  1  0.27983351  0.33182150  0.17906394  1
  Li  Li82  1  0.58182150  0.97016649  0.92906394  1
  Li  Li83  1  0.91817850  0.02983351  0.42906394  1
  Li  Li84  1  0.27983351  0.66817850  0.32093606  1
  Li  Li85  1  0.22016649  0.33182150  0.82093606  1
  Li  Li86  1  0.91817850  0.97016649  0.07093606  1
  Li  Li87  1  0.58182150  0.02983351  0.57093606  1
  Li  Li88  1  0.77983351  0.33182150  0.32093606  1
  Li  Li89  1  0.72016649  0.66817850  0.82093606  1
  Li  Li90  1  0.41817850  0.02983351  0.07093606  1
  Li  Li91  1  0.08182150  0.97016649  0.57093606  1
  Li  Li92  1  0.72016649  0.33182150  0.67906394  1
  Li  Li93  1  0.77983351  0.66817850  0.17906394  1
  Li  Li94  1  0.08182150  0.02983351  0.92906394  1
  Li  Li95  1  0.41817850  0.97016649  0.42906394  1
  Li  Li96  1  0.17521626  0.11849239  0.36778146  1
  Li  Li97  1  0.32478374  0.88150761  0.86778146  1
  Li  Li98  1  0.13150761  0.92521626  0.61778146  1
  Li  Li99  1  0.36849239  0.07478374  0.11778146  1
  Li  Li100  1  0.32478374  0.11849239  0.63221854  1
  Li  Li101  1  0.17521626  0.88150761  0.13221854  1
  Li  Li102  1  0.36849239  0.92521626  0.38221854  1
  Li  Li103  1  0.13150761  0.07478374  0.88221854  1
  Li  Li104  1  0.82478374  0.88150761  0.63221854  1
  Li  Li105  1  0.67521626  0.11849239  0.13221854  1
  Li  Li106  1  0.86849239  0.07478374  0.38221854  1
  Li  Li107  1  0.63150761  0.92521626  0.88221854  1
  Li  Li108  1  0.67521626  0.88150761  0.36778146  1
  Li  Li109  1  0.82478374  0.11849239  0.86778146  1
  Li  Li110  1  0.63150761  0.07478374  0.61778146  1
  Li  Li111  1  0.86849239  0.92521626  0.11778146  1
  Li  Li112  1  0.67521626  0.61849239  0.86778146  1
  Li  Li113  1  0.82478374  0.38150761  0.36778146  1
  Li  Li114  1  0.63150761  0.42521626  0.11778146  1
  Li  Li115  1  0.86849239  0.57478374  0.61778146  1
  Li  Li116  1  0.82478374  0.61849239  0.13221854  1
  Li  Li117  1  0.67521626  0.38150761  0.63221854  1
  Li  Li118  1  0.86849239  0.42521626  0.88221854  1
  Li  Li119  1  0.63150761  0.57478374  0.38221854  1
  Li  Li120  1  0.32478374  0.38150761  0.13221854  1
  Li  Li121  1  0.17521626  0.61849239  0.63221854  1
  Li  Li122  1  0.36849239  0.57478374  0.88221854  1
  Li  Li123  1  0.13150761  0.42521626  0.38221854  1
  Li  Li124  1  0.17521626  0.38150761  0.86778146  1
  Li  Li125  1  0.32478374  0.61849239  0.36778146  1
  Li  Li126  1  0.13150761  0.57478374  0.11778146  1
  Li  Li127  1  0.36849239  0.42521626  0.61778146  1
