# generated using pymatgen
data_Li2Y2MoP3Se2
_symmetry_space_group_name_H-M   'P 1'
_cell_length_a   5.26923559
_cell_length_b   5.49276947
_cell_length_c   7.30043435
_cell_angle_alpha   94.36401979
_cell_angle_beta   99.50392783
_cell_angle_gamma   107.52853304
_symmetry_Int_Tables_number   1
_chemical_formula_structural   Li2Y2MoP3Se2
_chemical_formula_sum   'Li2 Y2 Mo1 P3 Se2'
_cell_volume   196.93133444
_cell_formula_units_Z   1
loop_
 _symmetry_equiv_pos_site_id
 _symmetry_equiv_pos_as_xyz
  1  'x, y, z'
loop_
 _atom_site_type_symbol
 _atom_site_label
 _atom_site_symmetry_multiplicity
 _atom_site_fract_x
 _atom_site_fract_y
 _atom_site_fract_z
 _atom_site_occupancy
  Se  Se0  1  0.12500000  0.00000000  0.25000000  1
  Se  Se1  1  0.00000000  0.00000000  0.00000000  1
  Y  Y2  1  0.37500000  0.00000000  0.25000000  1
  Y  Y3  1  0.25000000  0.25000000  0.25000000  1
  P  P4  1  0.00000000  0.25000000  0.12500000  1
  P  P5  1  0.87855270  0.71579778  0.01119463  1
  P  P6  1  0.76250136  0.13896333  0.19141790  1
  Mo  Mo7  1  0.32011538  0.65381219  0.43451079  1
  Li  Li8  1  0.75440054  0.63552153  0.00257753  1
  Li  Li9  1  0.64929867  0.11771761  0.91695295  1
