# generated using pymatgen
data_LiY2Sb2(Te2P)2
_symmetry_space_group_name_H-M   'P 1'
_cell_length_a   5.14376346
_cell_length_b   5.21408464
_cell_length_c   7.16257417
_cell_angle_alpha   94.40580770
_cell_angle_beta   99.73594127
_cell_angle_gamma   107.86663763
_symmetry_Int_Tables_number   1
_chemical_formula_structural   LiY2Sb2(Te2P)2
_chemical_formula_sum   'Li1 Y2 Sb2 Te4 P2'
_cell_volume   178.49858879
_cell_formula_units_Z   1
loop_
 _symmetry_equiv_pos_site_id
 _symmetry_equiv_pos_as_xyz
  1  'x, y, z'
loop_
 _atom_site_type_symbol
 _atom_site_label
 _atom_site_symmetry_multiplicity
 _atom_site_fract_x
 _atom_site_fract_y
 _atom_site_fract_z
 _atom_site_occupancy
  Te  Te0  1  0.12500000  0.00000000  0.25000000  1
  Te  Te1  1  0.00000000  0.00000000  0.00000000  1
  Te  Te2  1  0.37500000  0.00000000  0.25000000  1
  Te  Te3  1  0.25000000  0.25000000  0.25000000  1
  Y  Y4  1  0.00000000  0.25000000  0.12500000  1
  Y  Y5  1  0.54250263  0.66138227  0.00937460  1
  P  P6  1  0.94311203  0.55460886  0.58304759  1
  P  P7  1  0.58007339  0.85673303  0.35095083  1
  Li  Li8  1  0.47374126  0.47580486  0.88075730  1
  Sb  Sb9  1  0.12004390  0.13550742  0.43735977  1
  Sb  Sb10  1  0.76535486  0.74816333  0.49502866  1
