# generated using pymatgen
data_Li2Si4Te3F12
_symmetry_space_group_name_H-M   'P 1'
_cell_length_a   14.75770378
_cell_length_b   14.75770378
_cell_length_c   6.31387414
_cell_angle_alpha   90.00000000
_cell_angle_beta   90.00000000
_cell_angle_gamma   120.00000000
_symmetry_Int_Tables_number   1
_chemical_formula_structural   Li2Si4Te3F12
_chemical_formula_sum   'Li8 Si16 Te12 F48'
_cell_volume   1190.86938367
_cell_formula_units_Z   4
loop_
 _symmetry_equiv_pos_site_id
 _symmetry_equiv_pos_as_xyz
  1  'x, y, z'
loop_
 _atom_site_type_symbol
 _atom_site_label
 _atom_site_symmetry_multiplicity
 _atom_site_fract_x
 _atom_site_fract_y
 _atom_site_fract_z
 _atom_site_occupancy
  F  F0  1  0.22158538  0.77378690  0.91265846  1
  F  F1  1  0.22621310  0.44779848  0.91265846  1
  F  F2  1  0.55220152  0.77841462  0.91265846  1
  F  F3  1  0.77841462  0.22621310  0.41265846  1
  F  F4  1  0.77378690  0.55220152  0.41265846  1
  F  F5  1  0.44779848  0.22158538  0.41265846  1
  F  F6  1  0.77841462  0.22621310  0.08734154  1
  F  F7  1  0.77378690  0.55220152  0.08734154  1
  F  F8  1  0.44779848  0.22158538  0.08734154  1
  F  F9  1  0.22158538  0.77378690  0.58734154  1
  F  F10  1  0.22621310  0.44779848  0.58734154  1
  F  F11  1  0.55220152  0.77841462  0.58734154  1
  F  F12  1  0.68219101  0.79936387  0.25000000  1
  F  F13  1  0.20063613  0.88282714  0.25000000  1
  F  F14  1  0.11717286  0.31780899  0.25000000  1
  F  F15  1  0.31780899  0.20063613  0.75000000  1
  F  F16  1  0.79936387  0.11717286  0.75000000  1
  F  F17  1  0.88282714  0.68219101  0.75000000  1
  F  F18  1  0.50000000  -0.00000000  0.00000000  1
  F  F19  1  0.00000000  0.50000000  0.00000000  1
  F  F20  1  0.50000000  0.50000000  0.00000000  1
  F  F21  1  0.50000000  -0.00000000  0.50000000  1
  F  F22  1  0.00000000  0.50000000  0.50000000  1
  F  F23  1  0.50000000  0.50000000  0.50000000  1
  F  F24  1  0.76086910  0.94734556  0.25000000  1
  F  F25  1  0.05265444  0.81352354  0.25000000  1
  F  F26  1  0.18647646  0.23913090  0.25000000  1
  F  F27  1  0.23913090  0.05265444  0.75000000  1
  F  F28  1  0.94734556  0.18647646  0.75000000  1
  F  F29  1  0.81352354  0.76086910  0.75000000  1
  F  F30  1  0.31784678  0.72194398  0.03543469  1
  F  F31  1  0.27805602  0.59590279  0.03543469  1
  F  F32  1  0.40409721  0.68215322  0.03543469  1
  F  F33  1  0.68215322  0.27805602  0.53543469  1
  F  F34  1  0.72194398  0.40409721  0.53543469  1
  F  F35  1  0.59590279  0.31784678  0.53543469  1
  F  F36  1  0.68215322  0.27805602  0.96456531  1
  F  F37  1  0.72194398  0.40409721  0.96456531  1
  F  F38  1  0.59590279  0.31784678  0.96456531  1
  F  F39  1  0.31784678  0.72194398  0.46456531  1
  F  F40  1  0.27805602  0.59590279  0.46456531  1
  F  F41  1  0.40409721  0.68215322  0.46456531  1
  F  F42  1  0.07175560  0.63173793  0.25000000  1
  F  F43  1  0.36826207  0.44001767  0.25000000  1
  F  F44  1  0.55998233  0.92824440  0.25000000  1
  F  F45  1  0.92824440  0.36826207  0.75000000  1
  F  F46  1  0.63173793  0.55998233  0.75000000  1
  F  F47  1  0.44001767  0.07175560  0.75000000  1
  Li  Li48  1  0.73364111  0.01931621  0.25000000  1
  Li  Li49  1  0.98068379  0.71432490  0.25000000  1
  Li  Li50  1  0.28567510  0.26635889  0.25000000  1
  Li  Li51  1  0.26635889  0.98068379  0.75000000  1
  Li  Li52  1  0.01931621  0.28567510  0.75000000  1
  Li  Li53  1  0.71432490  0.73364111  0.75000000  1
  Li  Li54  1  0.33333333  0.66666667  0.25000000  1
  Li  Li55  1  0.66666667  0.33333333  0.75000000  1
  Si  Si56  1  0.66666667  0.33333333  0.25000000  1
  Si  Si57  1  0.33333333  0.66666667  0.75000000  1
  Si  Si58  1  0.67917254  0.98697908  0.50580706  1
  Si  Si59  1  -0.98697908  -0.30780654  0.50580706  1
  Si  Si60  1  0.30780654  -0.67917254  0.50580706  1
  Si  Si61  1  -0.67917254  -0.98697908  1.00580706  1
  Si  Si62  1  0.98697908  0.30780654  1.00580706  1
  Si  Si63  1  -0.30780654  0.67917254  1.00580706  1
  Si  Si64  1  -0.67917254  -0.98697908  -0.50580706  1
  Si  Si65  1  0.98697908  0.30780654  -0.50580706  1
  Si  Si66  1  -0.30780654  0.67917254  -0.50580706  1
  Si  Si67  1  0.67917254  0.98697908  -0.00580706  1
  Si  Si68  1  -0.98697908  -0.30780654  -0.00580706  1
  Si  Si69  1  0.30780654  -0.67917254  -0.00580706  1
  Si  Si70  1  0.00000000  0.00000000  0.25000000  1
  Si  Si71  1  0.00000000  0.00000000  0.75000000  1
  Te  Te72  1  0.28820214  0.12084573  0.51828461  1
  Te  Te73  1  0.87915427  0.16735641  0.51828461  1
  Te  Te74  1  0.83264359  0.71179786  0.51828461  1
  Te  Te75  1  0.71179786  0.87915427  0.01828461  1
  Te  Te76  1  0.12084573  0.83264359  0.01828461  1
  Te  Te77  1  0.16735641  0.28820214  0.01828461  1
  Te  Te78  1  0.71179786  0.87915427  0.48171539  1
  Te  Te79  1  0.12084573  0.83264359  0.48171539  1
  Te  Te80  1  0.16735641  0.28820214  0.48171539  1
  Te  Te81  1  0.28820214  0.12084573  0.98171539  1
  Te  Te82  1  0.87915427  0.16735641  0.98171539  1
  Te  Te83  1  0.83264359  0.71179786  0.98171539  1
