# generated using pymatgen
data_LiF
_symmetry_space_group_name_H-M   'P 1'
_cell_length_a   7.47438423
_cell_length_b   8.46658271
_cell_length_c   10.52247934
_cell_angle_alpha   90.00000000
_cell_angle_beta   90.00000000
_cell_angle_gamma   90.00000000
_symmetry_Int_Tables_number   1
_chemical_formula_structural   LiF
_chemical_formula_sum   'Li24 F24'
_cell_volume   665.88871791
_cell_formula_units_Z   24
loop_
 _symmetry_equiv_pos_site_id
 _symmetry_equiv_pos_as_xyz
  1  'x, y, z'
loop_
 _atom_site_type_symbol
 _atom_site_label
 _atom_site_symmetry_multiplicity
 _atom_site_fract_x
 _atom_site_fract_y
 _atom_site_fract_z
 _atom_site_occupancy
  F  F0  1  0.64413217  0.37440457  0.96906265  1
  F  F1  1  0.35586783  0.62559543  0.96906265  1
  F  F2  1  0.85586783  0.87440457  0.03093735  1
  F  F3  1  0.14413217  0.12559543  0.03093735  1
  F  F4  1  0.35586783  0.62559543  0.03093735  1
  F  F5  1  0.64413217  0.37440457  0.03093735  1
  F  F6  1  0.14413217  0.12559543  0.96906265  1
  F  F7  1  0.85586783  0.87440457  0.96906265  1
  F  F8  1  0.45985562  0.73199758  0.18606253  1
  F  F9  1  0.54014438  0.26800242  0.18606253  1
  F  F10  1  0.04014438  0.23199758  0.81393747  1
  F  F11  1  0.95985562  0.76800242  0.81393747  1
  F  F12  1  0.54014438  0.26800242  0.81393747  1
  F  F13  1  0.45985562  0.73199758  0.81393747  1
  F  F14  1  0.95985562  0.76800242  0.18606253  1
  F  F15  1  0.04014438  0.23199758  0.18606253  1
  F  F16  1  0.82646264  0.15179237  0.23191200  1
  F  F17  1  0.17353736  0.84820763  0.23191200  1
  F  F18  1  0.67353736  0.65179237  0.76808800  1
  F  F19  1  0.32646264  0.34820763  0.76808800  1
  F  F20  1  0.17353736  0.84820763  0.76808800  1
  F  F21  1  0.82646264  0.15179237  0.76808800  1
  F  F22  1  0.32646264  0.34820763  0.23191200  1
  F  F23  1  0.67353736  0.65179237  0.23191200  1
  Li  Li24  1  0.00000000  0.00000000  0.00000000  1
  Li  Li25  1  0.50000000  0.50000000  0.00000000  1
  Li  Li26  1  0.00000000  0.50000000  0.68953871  1
  Li  Li27  1  0.50000000  0.00000000  0.31046129  1
  Li  Li28  1  0.00000000  0.50000000  0.31046129  1
  Li  Li29  1  0.50000000  0.00000000  0.68953871  1
  Li  Li30  1  0.58373176  0.96793378  0.13485501  1
  Li  Li31  1  -0.58373176  -0.96793378  0.13485501  1
  Li  Li32  1  -0.08373176  1.46793378  -0.13485501  1
  Li  Li33  1  1.08373176  -0.46793378  -0.13485501  1
  Li  Li34  1  -0.58373176  -0.96793378  -0.13485501  1
  Li  Li35  1  0.58373176  0.96793378  -0.13485501  1
  Li  Li36  1  1.08373176  -0.46793378  0.13485501  1
  Li  Li37  1  -0.08373176  1.46793378  0.13485501  1
  Li  Li38  1  0.79751823  0.45498909  0.26178692  1
  Li  Li39  1  0.20248177  0.54501091  0.26178692  1
  Li  Li40  1  0.70248177  0.95498909  0.73821308  1
  Li  Li41  1  0.29751823  0.04501091  0.73821308  1
  Li  Li42  1  0.20248177  0.54501091  0.73821308  1
  Li  Li43  1  0.79751823  0.45498909  0.73821308  1
  Li  Li44  1  0.29751823  0.04501091  0.26178692  1
  Li  Li45  1  0.70248177  0.95498909  0.26178692  1
  Li  Li46  1  0.00000000  0.50000000  0.50000000  1
  Li  Li47  1  0.50000000  0.00000000  0.50000000  1
