# generated using pymatgen
data_LiF
_symmetry_space_group_name_H-M   'P 1'
_cell_length_a   7.76748427
_cell_length_b   7.94216502
_cell_length_c   8.75246958
_cell_angle_alpha   90.00000000
_cell_angle_beta   90.00000000
_cell_angle_gamma   90.00000000
_symmetry_Int_Tables_number   1
_chemical_formula_structural   LiF
_chemical_formula_sum   'Li24 F24'
_cell_volume   539.94546703
_cell_formula_units_Z   24
loop_
 _symmetry_equiv_pos_site_id
 _symmetry_equiv_pos_as_xyz
  1  'x, y, z'
loop_
 _atom_site_type_symbol
 _atom_site_label
 _atom_site_symmetry_multiplicity
 _atom_site_fract_x
 _atom_site_fract_y
 _atom_site_fract_z
 _atom_site_occupancy
  F  F0  1  0.13641151  0.64625262  0.08323029  1
  F  F1  1  0.36358849  0.35374738  0.58323029  1
  F  F2  1  0.86358849  0.14625262  0.91676971  1
  F  F3  1  0.63641151  0.85374738  0.41676971  1
  F  F4  1  0.86358849  0.35374738  0.91676971  1
  F  F5  1  0.63641151  0.64625262  0.41676971  1
  F  F6  1  0.13641151  0.85374738  0.08323029  1
  F  F7  1  0.36358849  0.14625262  0.58323029  1
  F  F8  1  0.57770724  0.25000000  0.50320896  1
  F  F9  1  0.92229276  0.75000000  0.00320896  1
  F  F10  1  0.42229276  0.75000000  0.49679104  1
  F  F11  1  0.07770724  0.25000000  0.99679104  1
  F  F12  1  0.07070982  0.30555666  0.13058489  1
  F  F13  1  0.42929018  0.69444334  0.63058489  1
  F  F14  1  0.92929018  0.80555666  0.86941511  1
  F  F15  1  0.57070982  0.19444334  0.36941511  1
  F  F16  1  0.92929018  0.69444334  0.86941511  1
  F  F17  1  0.57070982  0.30555666  0.36941511  1
  F  F18  1  0.07070982  0.19444334  0.13058489  1
  F  F19  1  0.42929018  0.80555666  0.63058489  1
  F  F20  1  0.92721109  0.25000000  0.66420347  1
  F  F21  1  0.57278891  0.75000000  0.16420347  1
  F  F22  1  0.07278891  0.75000000  0.33579653  1
  F  F23  1  0.42721109  0.25000000  0.83579653  1
  Li  Li24  1  0.00000000  0.00000000  0.50000000  1
  Li  Li25  1  0.50000000  -0.00000000  -0.00000000  1
  Li  Li26  1  0.00000000  0.50000000  0.50000000  1
  Li  Li27  1  0.50000000  0.50000000  -0.00000000  1
  Li  Li28  1  0.86396701  0.46693935  0.63164913  1
  Li  Li29  1  -0.36396701  -0.46693935  1.13164913  1
  Li  Li30  1  -0.86396701  0.96693935  -0.63164913  1
  Li  Li31  1  1.36396701  0.03306065  -0.13164913  1
  Li  Li32  1  -0.86396701  -0.46693935  -0.63164913  1
  Li  Li33  1  1.36396701  0.46693935  -0.13164913  1
  Li  Li34  1  0.86396701  0.03306065  0.63164913  1
  Li  Li35  1  -0.36396701  0.96693935  1.13164913  1
  Li  Li36  1  0.00000000  0.00000000  0.00000000  1
  Li  Li37  1  0.50000000  -0.00000000  0.50000000  1
  Li  Li38  1  0.00000000  0.50000000  -0.00000000  1
  Li  Li39  1  0.50000000  0.50000000  0.50000000  1
  Li  Li40  1  0.74469604  0.14267554  0.09580297  1
  Li  Li41  1  0.75530396  0.85732446  0.59580297  1
  Li  Li42  1  0.25530396  0.64267554  0.90419703  1
  Li  Li43  1  0.24469604  0.35732446  0.40419703  1
  Li  Li44  1  0.25530396  0.85732446  0.90419703  1
  Li  Li45  1  0.24469604  0.14267554  0.40419703  1
  Li  Li46  1  0.74469604  0.35732446  0.09580297  1
  Li  Li47  1  0.75530396  0.64267554  0.59580297  1
