# generated using pymatgen
data_Li2YScF
_symmetry_space_group_name_H-M   'P 1'
_cell_length_a   3.14867690
_cell_length_b   3.06576581
_cell_length_c   5.30383527
_cell_angle_alpha   101.78610120
_cell_angle_beta   106.25968590
_cell_angle_gamma   109.29838531
_symmetry_Int_Tables_number   1
_chemical_formula_structural   Li2YScF
_chemical_formula_sum   'Li2 Y1 Sc1 F1'
_cell_volume   43.82959549
_cell_formula_units_Z   1
loop_
 _symmetry_equiv_pos_site_id
 _symmetry_equiv_pos_as_xyz
  1  'x, y, z'
loop_
 _atom_site_type_symbol
 _atom_site_label
 _atom_site_symmetry_multiplicity
 _atom_site_fract_x
 _atom_site_fract_y
 _atom_site_fract_z
 _atom_site_occupancy
  F  F0  1  0.00000000  0.00000000  0.00000000  1
  Li  Li1  1  0.33300000  0.66700000  0.25000000  1
  Li  Li2  1  0.66700000  0.33300000  0.50000000  1
  Sc  Sc3  1  0.00000000  0.00000000  0.75000000  1
  Y  Y4  1  0.67578663  0.67750397  0.32052209  1
