# generated using pymatgen
data_LiF
_symmetry_space_group_name_H-M   'P 1'
_cell_length_a   10.17983650
_cell_length_b   10.17983650
_cell_length_c   12.17171341
_cell_angle_alpha   90.00000000
_cell_angle_beta   90.00000000
_cell_angle_gamma   90.00000000
_symmetry_Int_Tables_number   1
_chemical_formula_structural   LiF
_chemical_formula_sum   'Li43 F43'
_cell_volume   1261.34335454
_cell_formula_units_Z   43
loop_
 _symmetry_equiv_pos_site_id
 _symmetry_equiv_pos_as_xyz
  1  'x, y, z'
loop_
 _atom_site_type_symbol
 _atom_site_label
 _atom_site_symmetry_multiplicity
 _atom_site_fract_x
 _atom_site_fract_y
 _atom_site_fract_z
 _atom_site_occupancy
  F  F0  1  0.37695077  0.50000000  0.50000000  1
  F  F1  1  0.62304923  0.50000000  0.50000000  1
  F  F2  1  0.50000000  0.37695077  0.50000000  1
  F  F3  1  0.50000000  0.62304923  0.50000000  1
  F  F4  1  0.25983785  0.00000000  0.00000000  1
  F  F5  1  0.74016215  0.00000000  0.00000000  1
  F  F6  1  0.00000000  0.25983785  0.00000000  1
  F  F7  1  0.00000000  0.74016215  0.00000000  1
  F  F8  1  0.79036714  0.79036714  0.25962297  1
  F  F9  1  0.20963286  0.20963286  0.25962297  1
  F  F10  1  0.20963286  0.79036714  0.25962297  1
  F  F11  1  0.79036714  0.20963286  0.25962297  1
  F  F12  1  0.20963286  0.79036714  0.74037703  1
  F  F13  1  0.79036714  0.20963286  0.74037703  1
  F  F14  1  0.79036714  0.79036714  0.74037703  1
  F  F15  1  0.20963286  0.20963286  0.74037703  1
  F  F16  1  0.20867118  0.66194919  0.50000000  1
  F  F17  1  0.79132882  0.33805081  0.50000000  1
  F  F18  1  0.33805081  0.20867118  0.50000000  1
  F  F19  1  0.66194919  0.79132882  0.50000000  1
  F  F20  1  0.79132882  0.66194919  0.50000000  1
  F  F21  1  0.20867118  0.33805081  0.50000000  1
  F  F22  1  0.66194919  0.20867118  0.50000000  1
  F  F23  1  0.33805081  0.79132882  0.50000000  1
  F  F24  1  0.37398494  0.77189485  0.04464912  1
  F  F25  1  -0.37398494  -0.77189485  0.04464912  1
  F  F26  1  -0.77189485  0.37398494  0.04464912  1
  F  F27  1  0.77189485  -0.37398494  0.04464912  1
  F  F28  1  -0.37398494  0.77189485  -0.04464912  1
  F  F29  1  0.37398494  -0.77189485  -0.04464912  1
  F  F30  1  0.77189485  0.37398494  -0.04464912  1
  F  F31  1  -0.77189485  -0.37398494  -0.04464912  1
  F  F32  1  -0.37398494  -0.77189485  -0.04464912  1
  F  F33  1  0.37398494  0.77189485  -0.04464912  1
  F  F34  1  0.77189485  -0.37398494  -0.04464912  1
  F  F35  1  -0.77189485  0.37398494  -0.04464912  1
  F  F36  1  0.37398494  -0.77189485  0.04464912  1
  F  F37  1  -0.37398494  0.77189485  0.04464912  1
  F  F38  1  -0.77189485  -0.37398494  0.04464912  1
  F  F39  1  0.77189485  0.37398494  0.04464912  1
  F  F40  1  0.00000000  0.00000000  0.57277865  1
  F  F41  1  0.00000000  0.00000000  0.42722135  1
  F  F42  1  0.00000000  0.00000000  0.50000000  1
  Li  Li43  1  0.69857751  0.00000000  0.68656118  1
  Li  Li44  1  0.30142249  -0.00000000  0.68656118  1
  Li  Li45  1  0.00000000  0.69857751  0.68656118  1
  Li  Li46  1  0.00000000  0.30142249  0.68656118  1
  Li  Li47  1  0.30142249  -0.00000000  0.31343882  1
  Li  Li48  1  0.69857751  0.00000000  0.31343882  1
  Li  Li49  1  0.00000000  0.69857751  0.31343882  1
  Li  Li50  1  0.00000000  0.30142249  0.31343882  1
  Li  Li51  1  0.63606743  0.00000000  0.00000000  1
  Li  Li52  1  0.36393257  -0.00000000  0.00000000  1
  Li  Li53  1  0.00000000  0.63606743  0.00000000  1
  Li  Li54  1  0.00000000  0.36393257  0.00000000  1
  Li  Li55  1  0.33206602  0.33206602  0.00000000  1
  Li  Li56  1  0.66793398  0.66793398  0.00000000  1
  Li  Li57  1  0.66793398  0.33206602  -0.00000000  1
  Li  Li58  1  0.33206602  0.66793398  0.00000000  1
  Li  Li59  1  0.65974225  0.50000000  0.30756985  1
  Li  Li60  1  0.34025775  0.50000000  0.30756985  1
  Li  Li61  1  0.50000000  0.65974225  0.30756985  1
  Li  Li62  1  0.50000000  0.34025775  0.30756985  1
  Li  Li63  1  0.34025775  0.50000000  0.69243015  1
  Li  Li64  1  0.65974225  0.50000000  0.69243015  1
  Li  Li65  1  0.50000000  0.65974225  0.69243015  1
  Li  Li66  1  0.50000000  0.34025775  0.69243015  1
  Li  Li67  1  0.10339168  0.32432313  0.50000000  1
  Li  Li68  1  0.89660832  0.67567687  0.50000000  1
  Li  Li69  1  0.67567687  0.10339168  0.50000000  1
  Li  Li70  1  0.32432313  0.89660832  0.50000000  1
  Li  Li71  1  0.89660832  0.32432313  0.50000000  1
  Li  Li72  1  0.10339168  0.67567687  0.50000000  1
  Li  Li73  1  0.32432313  0.10339168  0.50000000  1
  Li  Li74  1  0.67567687  0.89660832  0.50000000  1
  Li  Li75  1  0.18943250  -0.00000000  0.50000000  1
  Li  Li76  1  0.81056750  0.00000000  0.50000000  1
  Li  Li77  1  0.00000000  0.18943250  0.50000000  1
  Li  Li78  1  0.00000000  0.81056750  0.50000000  1
  Li  Li79  1  0.41925172  0.41925172  0.50000000  1
  Li  Li80  1  0.58074828  0.58074828  0.50000000  1
  Li  Li81  1  0.58074828  0.41925172  0.50000000  1
  Li  Li82  1  0.41925172  0.58074828  0.50000000  1
  Li  Li83  1  0.00000000  0.00000000  0.00000000  1
  Li  Li84  1  0.00000000  0.50000000  0.50000000  1
  Li  Li85  1  0.50000000  0.00000000  0.50000000  1
