# generated using pymatgen
data_LiYP2Se
_symmetry_space_group_name_H-M   'P 1'
_cell_length_a   4.52173147
_cell_length_b   4.82442234
_cell_length_c   7.00135160
_cell_angle_alpha   95.56902873
_cell_angle_beta   102.12818679
_cell_angle_gamma   112.36857504
_symmetry_Int_Tables_number   1
_chemical_formula_structural   LiYP2Se
_chemical_formula_sum   'Li2 Y2 P4 Se2'
_cell_volume   135.41571011
_cell_formula_units_Z   2
loop_
 _symmetry_equiv_pos_site_id
 _symmetry_equiv_pos_as_xyz
  1  'x, y, z'
loop_
 _atom_site_type_symbol
 _atom_site_label
 _atom_site_symmetry_multiplicity
 _atom_site_fract_x
 _atom_site_fract_y
 _atom_site_fract_z
 _atom_site_occupancy
  Y  Y0  1  0.00000000  0.00000000  0.00000000  1
  Y  Y1  1  0.33300000  0.66700000  0.25000000  1
  P  P2  1  0.66700000  0.33300000  0.50000000  1
  P  P3  1  0.00000000  0.00000000  0.75000000  1
  P  P4  1  0.67077348  0.63578741  0.67804784  1
  P  P5  1  0.29149953  0.71769623  0.76175325  1
  Se  Se6  1  0.92811486  0.24148620  0.34758796  1
  Se  Se7  1  0.22731546  0.49518921  0.86338186  1
  Li  Li8  1  0.07303963  0.59575937  0.86722847  1
  Li  Li9  1  0.42615399  0.77363347  0.67731609  1
