# generated using pymatgen
data_LiF
_symmetry_space_group_name_H-M   'P 1'
_cell_length_a   5.90243677
_cell_length_b   8.65018669
_cell_length_c   23.28608892
_cell_angle_alpha   90.00000000
_cell_angle_beta   90.00000000
_cell_angle_gamma   90.00000000
_symmetry_Int_Tables_number   1
_chemical_formula_structural   LiF
_chemical_formula_sum   'Li36 F36'
_cell_volume   1188.92203300
_cell_formula_units_Z   36
loop_
 _symmetry_equiv_pos_site_id
 _symmetry_equiv_pos_as_xyz
  1  'x, y, z'
loop_
 _atom_site_type_symbol
 _atom_site_label
 _atom_site_symmetry_multiplicity
 _atom_site_fract_x
 _atom_site_fract_y
 _atom_site_fract_z
 _atom_site_occupancy
  F  F0  1  0.47417040  0.78532813  0.07127645  1
  F  F1  1  0.02582960  0.21467187  0.57127645  1
  F  F2  1  0.52582960  0.28532813  0.92872355  1
  F  F3  1  0.97417040  0.71467187  0.42872355  1
  F  F4  1  0.52582960  0.21467187  0.92872355  1
  F  F5  1  0.97417040  0.78532813  0.42872355  1
  F  F6  1  0.47417040  0.71467187  0.07127645  1
  F  F7  1  0.02582960  0.28532813  0.57127645  1
  F  F8  1  0.26097236  0.32375621  0.91304957  1
  F  F9  1  0.23902764  0.67624379  0.41304957  1
  F  F10  1  0.73902764  0.82375621  0.08695043  1
  F  F11  1  0.76097236  0.17624379  0.58695043  1
  F  F12  1  0.73902764  0.67624379  0.08695043  1
  F  F13  1  0.76097236  0.32375621  0.58695043  1
  F  F14  1  0.26097236  0.17624379  0.91304957  1
  F  F15  1  0.23902764  0.82375621  0.41304957  1
  F  F16  1  0.40623604  0.04536280  0.08408693  1
  F  F17  1  0.09376396  0.95463720  0.58408693  1
  F  F18  1  0.59376396  0.54536280  0.91591307  1
  F  F19  1  0.90623604  0.45463720  0.41591307  1
  F  F20  1  0.59376396  0.95463720  0.91591307  1
  F  F21  1  0.90623604  0.04536280  0.41591307  1
  F  F22  1  0.40623604  0.45463720  0.08408693  1
  F  F23  1  0.09376396  0.54536280  0.58408693  1
  F  F24  1  0.62012075  0.65789553  0.04921151  1
  F  F25  1  0.87987925  0.34210447  0.54921151  1
  F  F26  1  0.37987925  0.15789553  0.95078849  1
  F  F27  1  0.12012075  0.84210447  0.45078849  1
  F  F28  1  0.37987925  0.34210447  0.95078849  1
  F  F29  1  0.12012075  0.65789553  0.45078849  1
  F  F30  1  0.62012075  0.84210447  0.04921151  1
  F  F31  1  0.87987925  0.15789553  0.54921151  1
  F  F32  1  0.66110626  0.25000000  0.27905366  1
  F  F33  1  0.83889374  0.75000000  0.77905366  1
  F  F34  1  0.33889374  0.75000000  0.72094634  1
  F  F35  1  0.16110626  0.25000000  0.22094634  1
  Li  Li36  1  0.00000000  0.00000000  0.50000000  1
  Li  Li37  1  0.50000000  0.00000000  0.00000000  1
  Li  Li38  1  0.00000000  0.50000000  0.50000000  1
  Li  Li39  1  0.50000000  0.50000000  0.00000000  1
  Li  Li40  1  0.78840026  0.25000000  0.52172157  1
  Li  Li41  1  0.71159974  0.75000000  0.02172157  1
  Li  Li42  1  0.21159974  0.75000000  0.47827843  1
  Li  Li43  1  0.28840026  0.25000000  0.97827843  1
  Li  Li44  1  0.74111157  0.91009769  0.27731217  1
  Li  Li45  1  -0.24111157  -0.91009769  0.77731217  1
  Li  Li46  1  -0.74111157  1.41009769  -0.27731217  1
  Li  Li47  1  1.24111157  -0.41009769  0.22268783  1
  Li  Li48  1  -0.74111157  -0.91009769  -0.27731217  1
  Li  Li49  1  1.24111157  0.91009769  0.22268783  1
  Li  Li50  1  0.74111157  -0.41009769  0.27731217  1
  Li  Li51  1  -0.24111157  1.41009769  0.77731217  1
  Li  Li52  1  0.98925885  0.66106271  0.26545471  1
  Li  Li53  1  0.51074115  0.33893729  0.76545471  1
  Li  Li54  1  0.01074115  0.16106271  0.73454529  1
  Li  Li55  1  0.48925885  0.83893729  0.23454529  1
  Li  Li56  1  0.01074115  0.33893729  0.73454529  1
  Li  Li57  1  0.48925885  0.66106271  0.23454529  1
  Li  Li58  1  0.98925885  0.83893729  0.26545471  1
  Li  Li59  1  0.51074115  0.16106271  0.76545471  1
  Li  Li60  1  0.36509941  0.82798561  0.86882673  1
  Li  Li61  1  0.13490059  0.17201439  0.36882673  1
  Li  Li62  1  0.63490059  0.32798561  0.13117327  1
  Li  Li63  1  0.86509941  0.67201439  0.63117327  1
  Li  Li64  1  0.63490059  0.17201439  0.13117327  1
  Li  Li65  1  0.86509941  0.82798561  0.63117327  1
  Li  Li66  1  0.36509941  0.67201439  0.86882673  1
  Li  Li67  1  0.13490059  0.32798561  0.36882673  1
  Li  Li68  1  0.00000000  0.00000000  0.00000000  1
  Li  Li69  1  0.50000000  0.00000000  0.50000000  1
  Li  Li70  1  0.00000000  0.50000000  0.00000000  1
  Li  Li71  1  0.50000000  0.50000000  0.50000000  1
