# generated using pymatgen
data_LiF
_symmetry_space_group_name_H-M   'P 1'
_cell_length_a   5.35251187
_cell_length_b   6.50876789
_cell_length_c   4.48285027
_cell_angle_alpha   90.00000000
_cell_angle_beta   90.00000000
_cell_angle_gamma   90.00000000
_symmetry_Int_Tables_number   1
_chemical_formula_structural   LiF
_chemical_formula_sum   'Li6 F6'
_cell_volume   156.17469191
_cell_formula_units_Z   6
loop_
 _symmetry_equiv_pos_site_id
 _symmetry_equiv_pos_as_xyz
  1  'x, y, z'
loop_
 _atom_site_type_symbol
 _atom_site_label
 _atom_site_symmetry_multiplicity
 _atom_site_fract_x
 _atom_site_fract_y
 _atom_site_fract_z
 _atom_site_occupancy
  F  F0  1  0.00000000  0.50000000  0.50000000  1
  F  F1  1  0.50000000  0.00000000  0.00000000  1
  F  F2  1  0.59736269  0.51562727  0.00000000  1
  F  F3  1  -0.59736269  -0.51562727  0.00000000  1
  F  F4  1  -0.09736269  1.01562727  0.50000000  1
  F  F5  1  1.09736269  -0.01562727  0.50000000  1
  Li  Li6  1  0.71404891  0.33846997  0.00000000  1
  Li  Li7  1  0.28595109  0.66153003  0.00000000  1
  Li  Li8  1  0.78595109  0.83846997  0.50000000  1
  Li  Li9  1  0.21404891  0.16153003  0.50000000  1
  Li  Li10  1  0.00000000  0.00000000  0.00000000  1
  Li  Li11  1  0.50000000  0.50000000  0.50000000  1
