# generated using pymatgen
data_LiY2(Te2P)2
_symmetry_space_group_name_H-M   'P 1'
_cell_length_a   5.07640085
_cell_length_b   5.02187946
_cell_length_c   7.17522266
_cell_angle_alpha   94.78857850
_cell_angle_beta   100.42852845
_cell_angle_gamma   109.23381665
_symmetry_Int_Tables_number   1
_chemical_formula_structural   LiY2(Te2P)2
_chemical_formula_sum   'Li1 Y2 Te4 P2'
_cell_volume   167.82621737
_cell_formula_units_Z   1
loop_
 _symmetry_equiv_pos_site_id
 _symmetry_equiv_pos_as_xyz
  1  'x, y, z'
loop_
 _atom_site_type_symbol
 _atom_site_label
 _atom_site_symmetry_multiplicity
 _atom_site_fract_x
 _atom_site_fract_y
 _atom_site_fract_z
 _atom_site_occupancy
  Y  Y0  1  0.00000000  0.00000000  0.00000000  1
  Y  Y1  1  0.33300000  0.66700000  0.25000000  1
  P  P2  1  0.66700000  0.33300000  0.50000000  1
  P  P3  1  0.00000000  0.00000000  0.75000000  1
  Te  Te4  1  0.47513517  0.65076802  0.59499867  1
  Te  Te5  1  0.90473416  0.81546560  0.98936774  1
  Te  Te6  1  0.44146402  0.74238556  0.74924175  1
  Te  Te7  1  0.74786353  0.25689477  0.81744345  1
  Li  Li8  1  0.91361200  0.26497024  0.60288263  1
