# generated using pymatgen
data_LiF
_symmetry_space_group_name_H-M   'P 1'
_cell_length_a   11.20964154
_cell_length_b   11.20964154
_cell_length_c   14.85507271
_cell_angle_alpha   90.00000000
_cell_angle_beta   90.00000000
_cell_angle_gamma   120.00000000
_symmetry_Int_Tables_number   1
_chemical_formula_structural   LiF
_chemical_formula_sum   'Li40 F40'
_cell_volume   1616.54896524
_cell_formula_units_Z   40
loop_
 _symmetry_equiv_pos_site_id
 _symmetry_equiv_pos_as_xyz
  1  'x, y, z'
loop_
 _atom_site_type_symbol
 _atom_site_label
 _atom_site_symmetry_multiplicity
 _atom_site_fract_x
 _atom_site_fract_y
 _atom_site_fract_z
 _atom_site_occupancy
  F  F0  1  0.05737206  0.28637536  0.77714378  1
  F  F1  1  0.71362464  0.77099670  0.77714378  1
  F  F2  1  0.22900330  0.94262794  0.77714378  1
  F  F3  1  0.71362464  0.94262794  0.22285622  1
  F  F4  1  0.22900330  0.28637536  0.22285622  1
  F  F5  1  0.05737206  0.77099670  0.22285622  1
  F  F6  1  0.14947179  0.23353237  0.24824135  1
  F  F7  1  0.76646763  0.91593942  0.24824135  1
  F  F8  1  0.08406058  0.85052821  0.24824135  1
  F  F9  1  0.76646763  0.85052821  0.75175865  1
  F  F10  1  0.08406058  0.23353237  0.75175865  1
  F  F11  1  0.14947179  0.91593942  0.75175865  1
  F  F12  1  0.89326130  0.98445400  0.50589862  1
  F  F13  1  0.01554600  0.90880729  0.50589862  1
  F  F14  1  0.09119271  0.10673870  0.50589862  1
  F  F15  1  0.01554600  0.10673870  0.49410138  1
  F  F16  1  0.09119271  0.98445400  0.49410138  1
  F  F17  1  0.89326130  0.90880729  0.49410138  1
  F  F18  1  0.33333333  0.66666667  -0.00000000  1
  F  F19  1  0.07580246  0.51218431  0.23966494  1
  F  F20  1  0.48781569  0.56361815  0.23966494  1
  F  F21  1  0.43638185  0.92419754  0.23966494  1
  F  F22  1  0.48781569  0.92419754  0.76033506  1
  F  F23  1  0.43638185  0.51218431  0.76033506  1
  F  F24  1  0.07580246  0.56361815  0.76033506  1
  F  F25  1  0.75516210  0.84017662  0.21703517  1
  F  F26  1  0.15982338  0.91498548  0.21703517  1
  F  F27  1  0.08501452  0.24483790  0.21703517  1
  F  F28  1  0.15982338  0.24483790  0.78296483  1
  F  F29  1  0.08501452  0.84017662  0.78296483  1
  F  F30  1  0.75516210  0.91498548  0.78296483  1
  F  F31  1  0.97130424  0.60963396  0.92594838  1
  F  F32  1  0.39036604  0.36167028  0.92594838  1
  F  F33  1  0.63832972  0.02869576  0.92594838  1
  F  F34  1  0.39036604  0.02869576  0.07405162  1
  F  F35  1  0.63832972  0.60963396  0.07405162  1
  F  F36  1  0.97130424  0.36167028  0.07405162  1
  F  F37  1  0.53796740  0.46203260  0.50000000  1
  F  F38  1  0.53796740  0.07593481  0.50000000  1
  F  F39  1  0.92406519  0.46203260  0.50000000  1
  Li  Li40  1  0.54911753  0.00336337  0.85379214  1
  Li  Li41  1  -0.00336337  0.54575416  0.85379214  1
  Li  Li42  1  -0.54575416  -0.54911753  0.85379214  1
  Li  Li43  1  -0.00336337  -0.54911753  -0.85379214  1
  Li  Li44  1  -0.54575416  0.00336337  -0.85379214  1
  Li  Li45  1  0.54911753  0.54575416  -0.85379214  1
  Li  Li46  1  0.36178905  0.79089148  0.42803976  1
  Li  Li47  1  0.20910852  0.57089757  0.42803976  1
  Li  Li48  1  0.42910243  0.63821095  0.42803976  1
  Li  Li49  1  0.20910852  0.63821095  0.57196024  1
  Li  Li50  1  0.42910243  0.79089148  0.57196024  1
  Li  Li51  1  0.36178905  0.57089757  0.57196024  1
  Li  Li52  1  0.00000000  0.00000000  0.50000000  1
  Li  Li53  1  0.96784316  0.63687290  0.04169303  1
  Li  Li54  1  0.36312710  0.33097026  0.04169303  1
  Li  Li55  1  0.66902974  0.03215684  0.04169303  1
  Li  Li56  1  0.36312710  0.03215684  0.95830697  1
  Li  Li57  1  0.66902974  0.63687290  0.95830697  1
  Li  Li58  1  0.96784316  0.33097026  0.95830697  1
  Li  Li59  1  0.50266489  0.09988908  0.37216783  1
  Li  Li60  1  0.90011092  0.40277581  0.37216783  1
  Li  Li61  1  0.59722419  0.49733511  0.37216783  1
  Li  Li62  1  0.90011092  0.49733511  0.62783217  1
  Li  Li63  1  0.59722419  0.09988908  0.62783217  1
  Li  Li64  1  0.50266489  0.40277581  0.62783217  1
  Li  Li65  1  0.55024867  0.40358784  0.77142281  1
  Li  Li66  1  0.59641216  0.14666083  0.77142281  1
  Li  Li67  1  0.85333917  0.44975133  0.77142281  1
  Li  Li68  1  0.59641216  0.44975133  0.22857719  1
  Li  Li69  1  0.85333917  0.40358784  0.22857719  1
  Li  Li70  1  0.55024867  0.14666083  0.22857719  1
  Li  Li71  1  0.66666667  0.33333333  -0.00000000  1
  Li  Li72  1  0.77358180  0.52828618  0.44507739  1
  Li  Li73  1  0.47171382  0.24529562  0.44507739  1
  Li  Li74  1  0.75470438  0.22641820  0.44507739  1
  Li  Li75  1  0.47171382  0.22641820  0.55492261  1
  Li  Li76  1  0.75470438  0.52828618  0.55492261  1
  Li  Li77  1  0.77358180  0.24529562  0.55492261  1
  Li  Li78  1  0.00000000  0.00000000  0.33314730  1
  Li  Li79  1  0.00000000  0.00000000  0.66685270  1
