# generated using pymatgen
data_LiF
_symmetry_space_group_name_H-M   'P 1'
_cell_length_a   10.28349061
_cell_length_b   10.28349061
_cell_length_c   20.11384659
_cell_angle_alpha   90.00000000
_cell_angle_beta   90.00000000
_cell_angle_gamma   120.00000000
_symmetry_Int_Tables_number   1
_chemical_formula_structural   LiF
_chemical_formula_sum   'Li47 F47'
_cell_volume   1842.07316807
_cell_formula_units_Z   47
loop_
 _symmetry_equiv_pos_site_id
 _symmetry_equiv_pos_as_xyz
  1  'x, y, z'
loop_
 _atom_site_type_symbol
 _atom_site_label
 _atom_site_symmetry_multiplicity
 _atom_site_fract_x
 _atom_site_fract_y
 _atom_site_fract_z
 _atom_site_occupancy
  F  F0  1  0.10347510  0.42202396  0.65668164  1
  F  F1  1  0.57797604  0.68145113  0.65668164  1
  F  F2  1  0.31854887  0.89652490  0.65668164  1
  F  F3  1  0.57797604  0.89652490  0.34331836  1
  F  F4  1  0.31854887  0.42202396  0.34331836  1
  F  F5  1  0.10347510  0.68145113  0.34331836  1
  F  F6  1  0.42357159  0.57642841  0.50000000  1
  F  F7  1  0.42357159  0.84714317  0.50000000  1
  F  F8  1  0.15285683  0.57642841  0.50000000  1
  F  F9  1  0.66666667  0.33333333  0.07093611  1
  F  F10  1  0.66666667  0.33333333  0.92906389  1
  F  F11  1  0.33333333  0.66666667  0.97551561  1
  F  F12  1  0.33333333  0.66666667  0.02448439  1
  F  F13  1  0.00580121  0.12764702  0.83661232  1
  F  F14  1  0.87235298  0.87815419  0.83661232  1
  F  F15  1  0.12184581  0.99419879  0.83661232  1
  F  F16  1  0.87235298  0.99419879  0.16338768  1
  F  F17  1  0.12184581  0.12764702  0.16338768  1
  F  F18  1  0.00580121  0.87815419  0.16338768  1
  F  F19  1  0.14560345  0.70315251  0.71296240  1
  F  F20  1  0.29684749  0.44245093  0.71296240  1
  F  F21  1  0.55754907  0.85439655  0.71296240  1
  F  F22  1  0.29684749  0.85439655  0.28703760  1
  F  F23  1  0.55754907  0.70315251  0.28703760  1
  F  F24  1  0.14560345  0.44245093  0.28703760  1
  F  F25  1  0.00000000  0.00000000  0.23921095  1
  F  F26  1  0.00000000  0.00000000  0.76078905  1
  F  F27  1  0.76239596  0.75047083  0.43954942  1
  F  F28  1  0.24952917  0.01192514  0.43954942  1
  F  F29  1  0.98807486  0.23760404  0.43954942  1
  F  F30  1  0.24952917  0.23760404  0.56045058  1
  F  F31  1  0.98807486  0.75047083  0.56045058  1
  F  F32  1  0.76239596  0.01192514  0.56045058  1
  F  F33  1  0.00000000  0.00000000  0.92458107  1
  F  F34  1  0.00000000  0.00000000  0.07541893  1
  F  F35  1  0.30109509  0.18472315  0.81970047  1
  F  F36  1  0.81527685  0.11637195  0.81970047  1
  F  F37  1  0.88362805  0.69890491  0.81970047  1
  F  F38  1  0.81527685  0.69890491  0.18029953  1
  F  F39  1  0.88362805  0.18472315  0.18029953  1
  F  F40  1  0.30109509  0.11637195  0.18029953  1
  F  F41  1  0.45141548  0.00865561  0.69519906  1
  F  F42  1  0.99134439  0.44275987  0.69519906  1
  F  F43  1  0.55724013  0.54858452  0.69519906  1
  F  F44  1  0.99134439  0.54858452  0.30480094  1
  F  F45  1  0.55724013  0.00865561  0.30480094  1
  F  F46  1  0.45141548  0.44275987  0.30480094  1
  Li  Li47  1  0.93305241  0.55813475  0.09757025  1
  Li  Li48  1  -0.55813475  0.37491766  0.09757025  1
  Li  Li49  1  -0.37491766  -0.93305241  0.09757025  1
  Li  Li50  1  -0.55813475  -0.93305241  -0.09757025  1
  Li  Li51  1  -0.37491766  0.55813475  -0.09757025  1
  Li  Li52  1  0.93305241  0.37491766  -0.09757025  1
  Li  Li53  1  0.62430044  0.41010806  0.32610385  1
  Li  Li54  1  0.58989194  0.21419238  0.32610385  1
  Li  Li55  1  0.78580762  0.37569956  0.32610385  1
  Li  Li56  1  0.58989194  0.37569956  0.67389615  1
  Li  Li57  1  0.78580762  0.41010806  0.67389615  1
  Li  Li58  1  0.62430044  0.21419238  0.67389615  1
  Li  Li59  1  0.72206266  0.99637930  0.75389019  1
  Li  Li60  1  0.00362070  0.72568335  0.75389019  1
  Li  Li61  1  0.27431665  0.27793734  0.75389019  1
  Li  Li62  1  0.00362070  0.27793734  0.24610981  1
  Li  Li63  1  0.27431665  0.99637930  0.24610981  1
  Li  Li64  1  0.72206266  0.72568335  0.24610981  1
  Li  Li65  1  0.66666667  0.33333333  -0.00000000  1
  Li  Li66  1  0.33333333  0.66666667  0.12191460  1
  Li  Li67  1  0.33333333  0.66666667  0.87808540  1
  Li  Li68  1  0.00000000  0.00000000  0.00000000  1
  Li  Li69  1  0.33191474  0.92046567  0.17451136  1
  Li  Li70  1  0.07953433  0.41144907  0.17451136  1
  Li  Li71  1  0.58855093  0.66808526  0.17451136  1
  Li  Li72  1  0.07953433  0.66808526  0.82548864  1
  Li  Li73  1  0.58855093  0.92046567  0.82548864  1
  Li  Li74  1  0.33191474  0.41144907  0.82548864  1
  Li  Li75  1  0.60325971  0.64229033  0.41228592  1
  Li  Li76  1  0.35770967  0.96096938  0.41228592  1
  Li  Li77  1  0.03903062  0.39674029  0.41228592  1
  Li  Li78  1  0.35770967  0.39674029  0.58771408  1
  Li  Li79  1  0.03903062  0.64229033  0.58771408  1
  Li  Li80  1  0.60325971  0.96096938  0.58771408  1
  Li  Li81  1  0.00000000  0.00000000  0.50000000  1
  Li  Li82  1  0.40057533  0.39632081  0.46329622  1
  Li  Li83  1  0.60367919  0.00425452  0.46329622  1
  Li  Li84  1  0.99574548  0.59942467  0.46329622  1
  Li  Li85  1  0.60367919  0.59942467  0.53670378  1
  Li  Li86  1  0.99574548  0.39632081  0.53670378  1
  Li  Li87  1  0.40057533  0.00425452  0.53670378  1
  Li  Li88  1  0.32866566  0.04098649  0.85777231  1
  Li  Li89  1  0.95901351  0.28767917  0.85777231  1
  Li  Li90  1  0.71232083  0.67133434  0.85777231  1
  Li  Li91  1  0.95901351  0.67133434  0.14222769  1
  Li  Li92  1  0.71232083  0.04098649  0.14222769  1
  Li  Li93  1  0.32866566  0.28767917  0.14222769  1
