# generated using pymatgen
data_LiF
_symmetry_space_group_name_H-M   'P 1'
_cell_length_a   19.88372532
_cell_length_b   19.88372532
_cell_length_c   11.23494247
_cell_angle_alpha   90.00000000
_cell_angle_beta   90.00000000
_cell_angle_gamma   120.00000000
_symmetry_Int_Tables_number   1
_chemical_formula_structural   LiF
_chemical_formula_sum   'Li108 F108'
_cell_volume   3846.77685495
_cell_formula_units_Z   108
loop_
 _symmetry_equiv_pos_site_id
 _symmetry_equiv_pos_as_xyz
  1  'x, y, z'
loop_
 _atom_site_type_symbol
 _atom_site_label
 _atom_site_symmetry_multiplicity
 _atom_site_fract_x
 _atom_site_fract_y
 _atom_site_fract_z
 _atom_site_occupancy
  F  F0  1  0.00000000  0.00000000  0.25000000  1
  F  F1  1  0.00000000  0.00000000  0.75000000  1
  F  F2  1  0.66666667  0.33333333  0.58333333  1
  F  F3  1  0.66666667  0.33333333  0.08333333  1
  F  F4  1  0.33333333  0.66666667  0.91666667  1
  F  F5  1  0.33333333  0.66666667  0.41666667  1
  F  F6  1  0.35389698  0.54269191  0.89125111  1
  F  F7  1  0.45730809  0.81120508  0.89125111  1
  F  F8  1  0.18879492  0.64610302  0.89125111  1
  F  F9  1  0.54269191  0.35389698  0.60874889  1
  F  F10  1  0.81120508  0.45730809  0.60874889  1
  F  F11  1  0.64610302  0.18879492  0.60874889  1
  F  F12  1  0.64610302  0.45730809  0.10874889  1
  F  F13  1  0.54269191  0.18879492  0.10874889  1
  F  F14  1  0.81120508  0.35389698  0.10874889  1
  F  F15  1  0.45730809  0.64610302  0.39125111  1
  F  F16  1  0.18879492  0.54269191  0.39125111  1
  F  F17  1  0.35389698  0.81120508  0.39125111  1
  F  F18  1  0.02056365  0.87602524  0.22458445  1
  F  F19  1  0.12397476  0.14453841  0.22458445  1
  F  F20  1  0.85546159  0.97943635  0.22458445  1
  F  F21  1  0.20935857  0.68723032  0.94208222  1
  F  F22  1  0.47787174  0.79064143  0.94208222  1
  F  F23  1  0.31276968  0.52212826  0.94208222  1
  F  F24  1  0.31276968  0.79064143  0.44208222  1
  F  F25  1  0.20935857  0.52212826  0.44208222  1
  F  F26  1  0.47787174  0.68723032  0.44208222  1
  F  F27  1  0.12397476  0.97943635  0.72458445  1
  F  F28  1  0.85546159  0.87602524  0.72458445  1
  F  F29  1  0.02056365  0.14453841  0.72458445  1
  F  F30  1  0.68723032  0.20935857  0.55791778  1
  F  F31  1  0.79064143  0.47787174  0.55791778  1
  F  F32  1  0.52212826  0.31276968  0.55791778  1
  F  F33  1  0.87602524  0.02056365  0.27541555  1
  F  F34  1  0.14453841  0.12397476  0.27541555  1
  F  F35  1  0.97943635  0.85546159  0.27541555  1
  F  F36  1  0.97943635  0.12397476  0.77541555  1
  F  F37  1  0.87602524  0.85546159  0.77541555  1
  F  F38  1  0.14453841  0.02056365  0.77541555  1
  F  F39  1  0.79064143  0.31276968  0.05791778  1
  F  F40  1  0.52212826  0.20935857  0.05791778  1
  F  F41  1  0.68723032  0.47787174  0.05791778  1
  F  F42  1  0.98189852  0.18970157  0.81078844  1
  F  F43  1  0.81029843  0.79219696  0.81078844  1
  F  F44  1  0.20780304  0.01810148  0.81078844  1
  F  F45  1  0.18970157  0.98189852  0.68921156  1
  F  F46  1  0.79219696  0.81029843  0.68921156  1
  F  F47  1  0.01810148  0.20780304  0.68921156  1
  F  F48  1  0.01810148  0.81029843  0.18921156  1
  F  F49  1  0.18970157  0.20780304  0.18921156  1
  F  F50  1  0.79219696  0.98189852  0.18921156  1
  F  F51  1  0.81029843  0.01810148  0.31078844  1
  F  F52  1  0.20780304  0.18970157  0.31078844  1
  F  F53  1  0.98189852  0.79219696  0.31078844  1
  F  F54  1  0.64856519  0.52303490  0.14412177  1
  F  F55  1  0.47696510  0.12553029  0.14412177  1
  F  F56  1  0.87446971  0.35143481  0.14412177  1
  F  F57  1  0.85636823  0.31523186  0.02254489  1
  F  F58  1  0.45886363  0.14363177  0.02254489  1
  F  F59  1  0.68476814  0.54113637  0.02254489  1
  F  F60  1  0.68476814  0.14363177  0.52254489  1
  F  F61  1  0.85636823  0.54113637  0.52254489  1
  F  F62  1  0.45886363  0.31523186  0.52254489  1
  F  F63  1  0.47696510  0.35143481  0.64412177  1
  F  F64  1  0.87446971  0.52303490  0.64412177  1
  F  F65  1  0.64856519  0.12553029  0.64412177  1
  F  F66  1  0.31523186  0.85636823  0.47745511  1
  F  F67  1  0.14363177  0.45886363  0.47745511  1
  F  F68  1  0.54113637  0.68476814  0.47745511  1
  F  F69  1  0.52303490  0.64856519  0.35587823  1
  F  F70  1  0.12553029  0.47696510  0.35587823  1
  F  F71  1  0.35143481  0.87446971  0.35587823  1
  F  F72  1  0.35143481  0.47696510  0.85587823  1
  F  F73  1  0.52303490  0.87446971  0.85587823  1
  F  F74  1  0.12553029  0.64856519  0.85587823  1
  F  F75  1  0.14363177  0.68476814  0.97745511  1
  F  F76  1  0.54113637  0.85636823  0.97745511  1
  F  F77  1  0.31523186  0.45886363  0.97745511  1
  F  F78  1  0.50000000  0.00000000  0.00000000  1
  F  F79  1  0.00000000  0.50000000  0.00000000  1
  F  F80  1  0.50000000  0.50000000  0.00000000  1
  F  F81  1  0.00000000  0.50000000  0.50000000  1
  F  F82  1  0.50000000  0.00000000  0.50000000  1
  F  F83  1  0.50000000  0.50000000  0.50000000  1
  F  F84  1  0.16666667  0.33333333  0.33333333  1
  F  F85  1  0.66666667  0.83333333  0.33333333  1
  F  F86  1  0.16666667  0.83333333  0.33333333  1
  F  F87  1  0.66666667  0.83333333  0.83333333  1
  F  F88  1  0.16666667  0.33333333  0.83333333  1
  F  F89  1  0.16666667  0.83333333  0.83333333  1
  F  F90  1  0.83333333  0.66666667  0.66666667  1
  F  F91  1  0.33333333  0.16666667  0.66666667  1
  F  F92  1  0.83333333  0.16666667  0.66666667  1
  F  F93  1  0.33333333  0.16666667  0.16666667  1
  F  F94  1  0.83333333  0.66666667  0.16666667  1
  F  F95  1  0.83333333  0.16666667  0.16666667  1
  F  F96  1  0.00000000  0.00000000  0.31238617  1
  F  F97  1  0.00000000  0.00000000  0.18761383  1
  F  F98  1  0.00000000  0.00000000  0.68761383  1
  F  F99  1  0.00000000  0.00000000  0.81238617  1
  F  F100  1  0.66666667  0.33333333  0.64571951  1
  F  F101  1  0.66666667  0.33333333  0.52094716  1
  F  F102  1  0.66666667  0.33333333  0.02094716  1
  F  F103  1  0.66666667  0.33333333  0.14571951  1
  F  F104  1  0.33333333  0.66666667  0.97905284  1
  F  F105  1  0.33333333  0.66666667  0.85428049  1
  F  F106  1  0.33333333  0.66666667  0.35428049  1
  F  F107  1  0.33333333  0.66666667  0.47905284  1
  Li  Li108  1  0.27328937  0.96863652  0.40236523  1
  Li  Li109  1  -0.96863652  -0.69534715  0.40236523  1
  Li  Li110  1  0.69534715  -0.27328937  0.40236523  1
  Li  Li111  1  0.96863652  0.27328937  0.09763477  1
  Li  Li112  1  -0.69534715  -0.96863652  0.09763477  1
  Li  Li113  1  -0.27328937  0.69534715  0.09763477  1
  Li  Li114  1  -0.27328937  -0.96863652  -0.40236523  1
  Li  Li115  1  0.96863652  0.69534715  -0.40236523  1
  Li  Li116  1  -0.69534715  0.27328937  -0.40236523  1
  Li  Li117  1  -0.96863652  -0.27328937  0.90236523  1
  Li  Li118  1  0.69534715  0.96863652  0.90236523  1
  Li  Li119  1  0.27328937  -0.69534715  0.90236523  1
  Li  Li120  1  0.93995604  1.30196985  0.73569856  1
  Li  Li121  1  -0.30196985  -0.36201382  0.73569856  1
  Li  Li122  1  1.36201382  0.06004396  0.73569856  1
  Li  Li123  1  1.63530319  0.60662270  0.43096811  1
  Li  Li124  1  -0.02868049  -0.63530319  0.43096811  1
  Li  Li125  1  0.39337730  1.02868049  0.43096811  1
  Li  Li126  1  0.39337730  -0.63530319  -0.06903189  1
  Li  Li127  1  1.63530319  1.02868049  -0.06903189  1
  Li  Li128  1  -0.02868049  0.60662270  -0.06903189  1
  Li  Li129  1  -0.30196985  0.06004396  1.23569856  1
  Li  Li130  1  1.36201382  1.30196985  1.23569856  1
  Li  Li131  1  0.93995604  -0.36201382  1.23569856  1
  Li  Li132  1  0.60662270  1.63530319  1.06903189  1
  Li  Li133  1  -0.63530319  -0.02868049  1.06903189  1
  Li  Li134  1  1.02868049  0.39337730  1.06903189  1
  Li  Li135  1  1.30196985  0.93995604  0.76430144  1
  Li  Li136  1  -0.36201382  -0.30196985  0.76430144  1
  Li  Li137  1  0.06004396  1.36201382  0.76430144  1
  Li  Li138  1  0.06004396  -0.30196985  0.26430144  1
  Li  Li139  1  1.30196985  1.36201382  0.26430144  1
  Li  Li140  1  -0.36201382  0.93995604  0.26430144  1
  Li  Li141  1  -0.63530319  0.39337730  1.56903189  1
  Li  Li142  1  1.02868049  1.63530319  1.56903189  1
  Li  Li143  1  0.60662270  -0.02868049  1.56903189  1
  Li  Li144  1  0.62289158  -0.00000000  0.25000000  1
  Li  Li145  1  0.00000000  0.62289158  0.25000000  1
  Li  Li146  1  0.37710842  0.37710842  0.25000000  1
  Li  Li147  1  0.37710842  0.00000000  0.75000000  1
  Li  Li148  1  0.00000000  0.37710842  0.75000000  1
  Li  Li149  1  0.62289158  0.62289158  0.75000000  1
  Li  Li150  1  0.28955825  0.33333333  0.58333333  1
  Li  Li151  1  0.66666667  0.95622491  0.58333333  1
  Li  Li152  1  0.04377509  0.71044175  0.58333333  1
  Li  Li153  1  0.04377509  0.33333333  0.08333333  1
  Li  Li154  1  0.66666667  0.71044175  0.08333333  1
  Li  Li155  1  0.28955825  0.95622491  0.08333333  1
  Li  Li156  1  0.95622491  0.66666667  0.91666667  1
  Li  Li157  1  0.33333333  0.28955825  0.91666667  1
  Li  Li158  1  0.71044175  0.04377509  0.91666667  1
  Li  Li159  1  0.71044175  0.66666667  0.41666667  1
  Li  Li160  1  0.33333333  0.04377509  0.41666667  1
  Li  Li161  1  0.95622491  0.28955825  0.41666667  1
  Li  Li162  1  0.81352216  0.60973671  0.67601497  1
  Li  Li163  1  0.39026329  0.20378544  0.67601497  1
  Li  Li164  1  0.79621456  0.18647784  0.67601497  1
  Li  Li165  1  0.60973671  0.81352216  0.82398503  1
  Li  Li166  1  0.20378544  0.39026329  0.82398503  1
  Li  Li167  1  0.18647784  0.79621456  0.82398503  1
  Li  Li168  1  0.18647784  0.39026329  0.32398503  1
  Li  Li169  1  0.60973671  0.79621456  0.32398503  1
  Li  Li170  1  0.20378544  0.81352216  0.32398503  1
  Li  Li171  1  0.39026329  0.18647784  0.17601497  1
  Li  Li172  1  0.79621456  0.60973671  0.17601497  1
  Li  Li173  1  0.81352216  0.20378544  0.17601497  1
  Li  Li174  1  0.48018882  0.94307005  0.00934830  1
  Li  Li175  1  0.05692995  0.53711878  0.00934830  1
  Li  Li176  1  0.46288122  0.51981118  0.00934830  1
  Li  Li177  1  0.27640338  0.14685549  0.15731837  1
  Li  Li178  1  0.87045211  0.72359662  0.15731837  1
  Li  Li179  1  0.85314451  0.12954789  0.15731837  1
  Li  Li180  1  0.85314451  0.72359662  0.65731837  1
  Li  Li181  1  0.27640338  0.12954789  0.65731837  1
  Li  Li182  1  0.87045211  0.14685549  0.65731837  1
  Li  Li183  1  0.05692995  0.51981118  0.50934830  1
  Li  Li184  1  0.46288122  0.94307005  0.50934830  1
  Li  Li185  1  0.48018882  0.53711878  0.50934830  1
  Li  Li186  1  0.14685549  0.27640338  0.34268163  1
  Li  Li187  1  0.72359662  0.87045211  0.34268163  1
  Li  Li188  1  0.12954789  0.85314451  0.34268163  1
  Li  Li189  1  0.94307005  0.48018882  0.49065170  1
  Li  Li190  1  0.53711878  0.05692995  0.49065170  1
  Li  Li191  1  0.51981118  0.46288122  0.49065170  1
  Li  Li192  1  0.51981118  0.05692995  0.99065170  1
  Li  Li193  1  0.94307005  0.46288122  0.99065170  1
  Li  Li194  1  0.53711878  0.48018882  0.99065170  1
  Li  Li195  1  0.72359662  0.85314451  0.84268163  1
  Li  Li196  1  0.12954789  0.27640338  0.84268163  1
  Li  Li197  1  0.14685549  0.87045211  0.84268163  1
  Li  Li198  1  0.39800041  0.00000000  0.25000000  1
  Li  Li199  1  0.00000000  0.39800041  0.25000000  1
  Li  Li200  1  0.60199959  0.60199959  0.25000000  1
  Li  Li201  1  0.60199959  0.00000000  0.75000000  1
  Li  Li202  1  0.00000000  0.60199959  0.75000000  1
  Li  Li203  1  0.39800041  0.39800041  0.75000000  1
  Li  Li204  1  0.06466708  0.33333333  0.58333333  1
  Li  Li205  1  0.66666667  0.73133375  0.58333333  1
  Li  Li206  1  0.26866625  0.93533292  0.58333333  1
  Li  Li207  1  0.26866625  0.33333333  0.08333333  1
  Li  Li208  1  0.66666667  0.93533292  0.08333333  1
  Li  Li209  1  0.06466708  0.73133375  0.08333333  1
  Li  Li210  1  0.73133375  0.66666667  0.91666667  1
  Li  Li211  1  0.33333333  0.06466708  0.91666667  1
  Li  Li212  1  0.93533292  0.26866625  0.91666667  1
  Li  Li213  1  0.93533292  0.66666667  0.41666667  1
  Li  Li214  1  0.33333333  0.26866625  0.41666667  1
  Li  Li215  1  0.73133375  0.06466708  0.41666667  1
