# generated using pymatgen
data_LiF
_symmetry_space_group_name_H-M   'P 1'
_cell_length_a   14.45785096
_cell_length_b   6.10550149
_cell_length_c   9.83598101
_cell_angle_alpha   90.00000000
_cell_angle_beta   90.00000000
_cell_angle_gamma   90.00000000
_symmetry_Int_Tables_number   1
_chemical_formula_structural   LiF
_chemical_formula_sum   'Li24 F24'
_cell_volume   868.24595087
_cell_formula_units_Z   24
loop_
 _symmetry_equiv_pos_site_id
 _symmetry_equiv_pos_as_xyz
  1  'x, y, z'
loop_
 _atom_site_type_symbol
 _atom_site_label
 _atom_site_symmetry_multiplicity
 _atom_site_fract_x
 _atom_site_fract_y
 _atom_site_fract_z
 _atom_site_occupancy
  F  F0  1  0.58605640  0.36142150  0.12859469  1
  F  F1  1  0.91394360  0.63857850  0.62859469  1
  F  F2  1  0.41394360  0.86142150  0.87140531  1
  F  F3  1  0.08605640  0.13857850  0.37140531  1
  F  F4  1  0.41394360  0.63857850  0.87140531  1
  F  F5  1  0.08605640  0.36142150  0.37140531  1
  F  F6  1  0.58605640  0.13857850  0.12859469  1
  F  F7  1  0.91394360  0.86142150  0.62859469  1
  F  F8  1  0.75394027  0.35685074  0.07597556  1
  F  F9  1  0.74605973  0.64314926  0.57597556  1
  F  F10  1  0.24605973  0.85685074  0.92402444  1
  F  F11  1  0.25394027  0.14314926  0.42402444  1
  F  F12  1  0.24605973  0.64314926  0.92402444  1
  F  F13  1  0.25394027  0.35685074  0.42402444  1
  F  F14  1  0.75394027  0.14314926  0.07597556  1
  F  F15  1  0.74605973  0.85685074  0.57597556  1
  F  F16  1  0.23916197  0.25000000  0.06501382  1
  F  F17  1  0.26083803  0.75000000  0.56501382  1
  F  F18  1  0.76083803  0.75000000  0.93498618  1
  F  F19  1  0.73916197  0.25000000  0.43498618  1
  F  F20  1  0.31736404  0.25000000  0.21958944  1
  F  F21  1  0.18263596  0.75000000  0.71958944  1
  F  F22  1  0.68263596  0.75000000  0.78041056  1
  F  F23  1  0.81736404  0.25000000  0.28041056  1
  Li  Li24  1  0.00000000  0.00000000  0.50000000  1
  Li  Li25  1  0.50000000  0.00000000  0.00000000  1
  Li  Li26  1  0.00000000  0.50000000  0.50000000  1
  Li  Li27  1  0.50000000  0.50000000  0.00000000  1
  Li  Li28  1  0.00000000  0.00000000  0.00000000  1
  Li  Li29  1  0.50000000  0.00000000  0.50000000  1
  Li  Li30  1  0.00000000  0.50000000  0.00000000  1
  Li  Li31  1  0.50000000  0.50000000  0.50000000  1
  Li  Li32  1  0.67793941  0.25000000  0.81691372  1
  Li  Li33  1  0.82206059  0.75000000  0.31691372  1
  Li  Li34  1  0.32206059  0.75000000  0.18308628  1
  Li  Li35  1  0.17793941  0.25000000  0.68308628  1
  Li  Li36  1  0.65203157  0.25000000  0.42897850  1
  Li  Li37  1  0.84796843  0.75000000  0.92897850  1
  Li  Li38  1  0.34796843  0.75000000  0.57102150  1
  Li  Li39  1  0.15203157  0.25000000  0.07102150  1
  Li  Li40  1  0.40450209  0.48940643  0.32631321  1
  Li  Li41  1  0.09549791  -0.48940643  0.82631321  1
  Li  Li42  1  -0.40450209  0.98940643  -0.32631321  1
  Li  Li43  1  0.90450209  0.01059357  0.17368679  1
  Li  Li44  1  -0.40450209  -0.48940643  -0.32631321  1
  Li  Li45  1  0.90450209  0.48940643  0.17368679  1
  Li  Li46  1  0.40450209  0.01059357  0.32631321  1
  Li  Li47  1  0.09549791  0.98940643  0.82631321  1
