# generated using pymatgen
data_Li2YAsP2Se
_symmetry_space_group_name_H-M   'P 1'
_cell_length_a   4.63066068
_cell_length_b   4.77152954
_cell_length_c   6.87314324
_cell_angle_alpha   95.75834945
_cell_angle_beta   101.85242948
_cell_angle_gamma   111.08409537
_symmetry_Int_Tables_number   1
_chemical_formula_structural   Li2YAsP2Se
_chemical_formula_sum   'Li2 Y1 As1 P2 Se1'
_cell_volume   136.12926525
_cell_formula_units_Z   1
loop_
 _symmetry_equiv_pos_site_id
 _symmetry_equiv_pos_as_xyz
  1  'x, y, z'
loop_
 _atom_site_type_symbol
 _atom_site_label
 _atom_site_symmetry_multiplicity
 _atom_site_fract_x
 _atom_site_fract_y
 _atom_site_fract_z
 _atom_site_occupancy
  Se  Se0  1  0.00000000  0.00000000  0.00000000  1
  P  P1  1  0.50000000  0.50000000  0.50000000  1
  P  P2  1  0.50000000  0.50000000  0.00000000  1
  As  As3  1  0.50000000  0.00000000  0.50000000  1
  Li  Li4  1  0.00000000  0.50000000  0.50000000  1
  Li  Li5  1  0.31514541  0.53236778  0.80962840  1
  Y  Y6  1  0.85011871  0.73456146  0.61466620  1
