# generated using pymatgen
data_LiF
_symmetry_space_group_name_H-M   'P 1'
_cell_length_a   20.68491965
_cell_length_b   20.68491965
_cell_length_c   6.26022591
_cell_angle_alpha   90.00000000
_cell_angle_beta   90.00000000
_cell_angle_gamma   120.00000000
_symmetry_Int_Tables_number   1
_chemical_formula_structural   LiF
_chemical_formula_sum   'Li90 F90'
_cell_volume   2319.68126072
_cell_formula_units_Z   90
loop_
 _symmetry_equiv_pos_site_id
 _symmetry_equiv_pos_as_xyz
  1  'x, y, z'
loop_
 _atom_site_type_symbol
 _atom_site_label
 _atom_site_symmetry_multiplicity
 _atom_site_fract_x
 _atom_site_fract_y
 _atom_site_fract_z
 _atom_site_occupancy
  F  F0  1  0.36045059  0.16342029  0.36128142  1
  F  F1  1  0.83657971  0.19703030  0.36128142  1
  F  F2  1  0.80296970  0.63954941  0.36128142  1
  F  F3  1  0.16342029  0.36045059  0.13871858  1
  F  F4  1  0.19703030  0.83657971  0.13871858  1
  F  F5  1  0.63954941  0.80296970  0.13871858  1
  F  F6  1  0.63954941  0.83657971  0.63871858  1
  F  F7  1  0.16342029  0.80296970  0.63871858  1
  F  F8  1  0.19703030  0.36045059  0.63871858  1
  F  F9  1  0.83657971  0.63954941  0.86128142  1
  F  F10  1  0.80296970  0.16342029  0.86128142  1
  F  F11  1  0.36045059  0.19703030  0.86128142  1
  F  F12  1  0.02711725  0.49675362  0.69461475  1
  F  F13  1  0.50324638  0.53036363  0.69461475  1
  F  F14  1  0.46963637  0.97288275  0.69461475  1
  F  F15  1  0.83008695  0.69378392  0.47205191  1
  F  F16  1  0.86369697  0.16991305  0.47205191  1
  F  F17  1  0.30621608  0.13630303  0.47205191  1
  F  F18  1  0.30621608  0.16991305  0.97205191  1
  F  F19  1  0.83008695  0.13630303  0.97205191  1
  F  F20  1  0.86369697  0.69378392  0.97205191  1
  F  F21  1  0.50324638  0.97288275  0.19461475  1
  F  F22  1  0.46963637  0.49675362  0.19461475  1
  F  F23  1  0.02711725  0.53036363  0.19461475  1
  F  F24  1  0.69378392  0.83008695  0.02794809  1
  F  F25  1  0.16991305  0.86369697  0.02794809  1
  F  F26  1  0.13630303  0.30621608  0.02794809  1
  F  F27  1  0.49675362  0.02711725  0.80538525  1
  F  F28  1  0.53036363  0.50324638  0.80538525  1
  F  F29  1  0.97288275  0.46963637  0.80538525  1
  F  F30  1  0.97288275  0.50324638  0.30538525  1
  F  F31  1  0.49675362  0.46963637  0.30538525  1
  F  F32  1  0.53036363  0.02711725  0.30538525  1
  F  F33  1  0.16991305  0.30621608  0.52794809  1
  F  F34  1  0.13630303  0.83008695  0.52794809  1
  F  F35  1  0.69378392  0.86369697  0.52794809  1
  F  F36  1  0.82065796  0.49200394  0.21400492  1
  F  F37  1  0.50799606  0.32865402  0.21400492  1
  F  F38  1  0.67134598  0.17934204  0.21400492  1
  F  F39  1  0.49200394  0.82065796  0.28599508  1
  F  F40  1  0.32865402  0.50799606  0.28599508  1
  F  F41  1  0.17934204  0.67134598  0.28599508  1
  F  F42  1  0.17934204  0.50799606  0.78599508  1
  F  F43  1  0.49200394  0.67134598  0.78599508  1
  F  F44  1  0.32865402  0.82065796  0.78599508  1
  F  F45  1  0.50799606  0.17934204  0.71400492  1
  F  F46  1  0.67134598  0.49200394  0.71400492  1
  F  F47  1  0.82065796  0.32865402  0.71400492  1
  F  F48  1  0.48732462  0.82533727  0.54733825  1
  F  F49  1  0.17466273  0.66198735  0.54733825  1
  F  F50  1  0.33801265  0.51267538  0.54733825  1
  F  F51  1  0.15867061  0.15399129  0.61932842  1
  F  F52  1  0.99532068  0.84132939  0.61932842  1
  F  F53  1  0.84600871  0.00467932  0.61932842  1
  F  F54  1  0.84600871  0.84132939  0.11932842  1
  F  F55  1  0.15867061  0.00467932  0.11932842  1
  F  F56  1  0.99532068  0.15399129  0.11932842  1
  F  F57  1  0.17466273  0.51267538  0.04733825  1
  F  F58  1  0.33801265  0.82533727  0.04733825  1
  F  F59  1  0.48732462  0.66198735  0.04733825  1
  F  F60  1  0.15399129  0.15867061  0.88067158  1
  F  F61  1  0.84132939  0.99532068  0.88067158  1
  F  F62  1  0.00467932  0.84600871  0.88067158  1
  F  F63  1  0.82533727  0.48732462  0.95266175  1
  F  F64  1  0.66198735  0.17466273  0.95266175  1
  F  F65  1  0.51267538  0.33801265  0.95266175  1
  F  F66  1  0.51267538  0.17466273  0.45266175  1
  F  F67  1  0.82533727  0.33801265  0.45266175  1
  F  F68  1  0.66198735  0.48732462  0.45266175  1
  F  F69  1  0.84132939  0.84600871  0.38067158  1
  F  F70  1  0.00467932  0.15867061  0.38067158  1
  F  F71  1  0.15399129  0.99532068  0.38067158  1
  F  F72  1  0.00000000  0.00000000  0.09871872  1
  F  F73  1  0.00000000  0.00000000  0.40128128  1
  F  F74  1  0.00000000  0.00000000  0.90128128  1
  F  F75  1  0.00000000  0.00000000  0.59871872  1
  F  F76  1  0.66666667  0.33333333  0.43205206  1
  F  F77  1  0.66666667  0.33333333  0.73461461  1
  F  F78  1  0.66666667  0.33333333  0.23461461  1
  F  F79  1  0.66666667  0.33333333  0.93205206  1
  F  F80  1  0.33333333  0.66666667  0.76538539  1
  F  F81  1  0.33333333  0.66666667  0.06794794  1
  F  F82  1  0.33333333  0.66666667  0.56794794  1
  F  F83  1  0.33333333  0.66666667  0.26538539  1
  F  F84  1  0.00000000  0.00000000  0.25000000  1
  F  F85  1  0.00000000  0.00000000  0.75000000  1
  F  F86  1  0.66666667  0.33333333  0.58333333  1
  F  F87  1  0.66666667  0.33333333  0.08333333  1
  F  F88  1  0.33333333  0.66666667  0.91666667  1
  F  F89  1  0.33333333  0.66666667  0.41666667  1
  Li  Li90  1  0.50000000  -0.00000000  -0.00000000  1
  Li  Li91  1  0.00000000  0.50000000  0.00000000  1
  Li  Li92  1  0.50000000  0.50000000  0.00000000  1
  Li  Li93  1  0.00000000  0.50000000  0.50000000  1
  Li  Li94  1  0.50000000  -0.00000000  0.50000000  1
  Li  Li95  1  0.50000000  0.50000000  0.50000000  1
  Li  Li96  1  0.16666667  0.33333333  0.33333333  1
  Li  Li97  1  0.66666667  0.83333333  0.33333333  1
  Li  Li98  1  0.16666667  0.83333333  0.33333333  1
  Li  Li99  1  0.66666667  0.83333333  0.83333333  1
  Li  Li100  1  0.16666667  0.33333333  0.83333333  1
  Li  Li101  1  0.16666667  0.83333333  0.83333333  1
  Li  Li102  1  0.83333333  0.66666667  0.66666667  1
  Li  Li103  1  0.33333333  0.16666667  0.66666667  1
  Li  Li104  1  0.83333333  0.16666667  0.66666667  1
  Li  Li105  1  0.33333333  0.16666667  0.16666667  1
  Li  Li106  1  0.83333333  0.66666667  0.16666667  1
  Li  Li107  1  0.83333333  0.16666667  0.16666667  1
  Li  Li108  1  0.58138107  0.19131276  0.58013831  1
  Li  Li109  1  -0.19131276  0.39006830  0.58013831  1
  Li  Li110  1  -0.39006830  -0.58138107  0.58013831  1
  Li  Li111  1  0.19131276  0.58138107  -0.08013831  1
  Li  Li112  1  0.39006830  -0.19131276  -0.08013831  1
  Li  Li113  1  -0.58138107  -0.39006830  -0.08013831  1
  Li  Li114  1  -0.58138107  -0.19131276  -0.58013831  1
  Li  Li115  1  0.19131276  -0.39006830  -0.58013831  1
  Li  Li116  1  0.39006830  0.58138107  -0.58013831  1
  Li  Li117  1  -0.19131276  -0.58138107  1.08013831  1
  Li  Li118  1  -0.39006830  0.19131276  1.08013831  1
  Li  Li119  1  0.58138107  0.39006830  1.08013831  1
  Li  Li120  1  1.24804773  0.52464610  0.91347164  1
  Li  Li121  1  0.47535390  0.72340164  0.91347164  1
  Li  Li122  1  0.27659836  -0.24804773  0.91347164  1
  Li  Li123  1  0.85797943  0.91471440  0.25319503  1
  Li  Li124  1  1.05673497  0.14202057  0.25319503  1
  Li  Li125  1  0.08528560  -0.05673497  0.25319503  1
  Li  Li126  1  0.08528560  0.14202057  -0.24680497  1
  Li  Li127  1  0.85797943  -0.05673497  -0.24680497  1
  Li  Li128  1  1.05673497  0.91471440  -0.24680497  1
  Li  Li129  1  0.47535390  -0.24804773  1.41347164  1
  Li  Li130  1  0.27659836  0.52464610  1.41347164  1
  Li  Li131  1  1.24804773  0.72340164  1.41347164  1
  Li  Li132  1  0.91471440  0.85797943  1.24680497  1
  Li  Li133  1  0.14202057  1.05673497  1.24680497  1
  Li  Li134  1  -0.05673497  0.08528560  1.24680497  1
  Li  Li135  1  0.52464610  1.24804773  0.58652836  1
  Li  Li136  1  0.72340164  0.47535390  0.58652836  1
  Li  Li137  1  -0.24804773  0.27659836  0.58652836  1
  Li  Li138  1  -0.24804773  0.47535390  0.08652836  1
  Li  Li139  1  0.52464610  0.27659836  0.08652836  1
  Li  Li140  1  0.72340164  1.24804773  0.08652836  1
  Li  Li141  1  0.14202057  0.08528560  1.74680497  1
  Li  Li142  1  -0.05673497  0.85797943  1.74680497  1
  Li  Li143  1  0.91471440  1.05673497  1.74680497  1
  Li  Li144  1  0.41541385  0.38807615  0.35822937  1
  Li  Li145  1  0.61192385  0.02733770  0.35822937  1
  Li  Li146  1  0.97266230  0.58458615  0.35822937  1
  Li  Li147  1  0.38807615  0.41541385  0.14177063  1
  Li  Li148  1  0.02733770  0.61192385  0.14177063  1
  Li  Li149  1  0.58458615  0.97266230  0.14177063  1
  Li  Li150  1  0.58458615  0.61192385  0.64177063  1
  Li  Li151  1  0.38807615  0.97266230  0.64177063  1
  Li  Li152  1  0.02733770  0.41541385  0.64177063  1
  Li  Li153  1  0.61192385  0.58458615  0.85822937  1
  Li  Li154  1  0.97266230  0.38807615  0.85822937  1
  Li  Li155  1  0.41541385  0.02733770  0.85822937  1
  Li  Li156  1  0.08208052  0.72140948  0.69156270  1
  Li  Li157  1  0.27859052  0.36067104  0.69156270  1
  Li  Li158  1  0.63932896  0.91791948  0.69156270  1
  Li  Li159  1  0.05474282  0.74874718  0.47510396  1
  Li  Li160  1  0.69400437  0.94525718  0.47510396  1
  Li  Li161  1  0.25125282  0.30599563  0.47510396  1
  Li  Li162  1  0.25125282  0.94525718  0.97510396  1
  Li  Li163  1  0.05474282  0.30599563  0.97510396  1
  Li  Li164  1  0.69400437  0.74874718  0.97510396  1
  Li  Li165  1  0.27859052  0.91791948  0.19156270  1
  Li  Li166  1  0.63932896  0.72140948  0.19156270  1
  Li  Li167  1  0.08208052  0.36067104  0.19156270  1
  Li  Li168  1  0.74874718  0.05474282  0.02489604  1
  Li  Li169  1  0.94525718  0.69400437  0.02489604  1
  Li  Li170  1  0.30599563  0.25125282  0.02489604  1
  Li  Li171  1  0.72140948  0.08208052  0.80843730  1
  Li  Li172  1  0.36067104  0.27859052  0.80843730  1
  Li  Li173  1  0.91791948  0.63932896  0.80843730  1
  Li  Li174  1  0.91791948  0.27859052  0.30843730  1
  Li  Li175  1  0.72140948  0.63932896  0.30843730  1
  Li  Li176  1  0.36067104  0.08208052  0.30843730  1
  Li  Li177  1  0.94525718  0.25125282  0.52489604  1
  Li  Li178  1  0.30599563  0.05474282  0.52489604  1
  Li  Li179  1  0.74874718  0.69400437  0.52489604  1
