# generated using pymatgen
data_Li2Si4Te3F12
_symmetry_space_group_name_H-M   'P 1'
_cell_length_a   10.24042460
_cell_length_b   10.24042460
_cell_length_c   14.51268806
_cell_angle_alpha   90.00000000
_cell_angle_beta   90.00000000
_cell_angle_gamma   90.00000000
_symmetry_Int_Tables_number   1
_chemical_formula_structural   Li2Si4Te3F12
_chemical_formula_sum   'Li8 Si16 Te12 F48'
_cell_volume   1521.89184270
_cell_formula_units_Z   4
loop_
 _symmetry_equiv_pos_site_id
 _symmetry_equiv_pos_as_xyz
  1  'x, y, z'
loop_
 _atom_site_type_symbol
 _atom_site_label
 _atom_site_symmetry_multiplicity
 _atom_site_fract_x
 _atom_site_fract_y
 _atom_site_fract_z
 _atom_site_occupancy
  F  F0  1  0.00000000  0.70984236  0.76937233  1
  F  F1  1  0.50000000  0.29015764  0.26937233  1
  F  F2  1  0.54015764  0.75000000  0.01937233  1
  F  F3  1  0.95984236  0.25000000  0.51937233  1
  F  F4  1  0.50000000  0.70984236  0.73062767  1
  F  F5  1  0.00000000  0.29015764  0.23062767  1
  F  F6  1  0.95984236  0.75000000  0.48062767  1
  F  F7  1  0.54015764  0.25000000  0.98062767  1
  F  F8  1  0.50000000  0.20984236  0.26937233  1
  F  F9  1  0.00000000  0.79015764  0.76937233  1
  F  F10  1  0.04015764  0.25000000  0.51937233  1
  F  F11  1  0.45984236  0.75000000  0.01937233  1
  F  F12  1  0.00000000  0.20984236  0.23062767  1
  F  F13  1  0.50000000  0.79015764  0.73062767  1
  F  F14  1  0.45984236  0.25000000  0.98062767  1
  F  F15  1  0.04015764  0.75000000  0.48062767  1
  F  F16  1  0.56876165  0.32130170  0.73763211  1
  F  F17  1  -0.06876165  -0.32130170  1.23763211  1
  F  F18  1  -0.07130170  1.31876165  0.98763211  1
  F  F19  1  0.57130170  -0.31876165  1.48763211  1
  F  F20  1  -0.06876165  0.32130170  -0.23763211  1
  F  F21  1  0.56876165  -0.32130170  -0.73763211  1
  F  F22  1  0.57130170  1.31876165  -0.48763211  1
  F  F23  1  -0.07130170  -0.31876165  0.01236789  1
  F  F24  1  -0.56876165  -0.32130170  -0.73763211  1
  F  F25  1  1.06876165  0.32130170  -0.23763211  1
  F  F26  1  1.07130170  -0.31876165  0.01236789  1
  F  F27  1  0.42869830  1.31876165  -0.48763211  1
  F  F28  1  1.06876165  -0.32130170  1.23763211  1
  F  F29  1  -0.56876165  0.32130170  0.73763211  1
  F  F30  1  0.42869830  -0.31876165  1.48763211  1
  F  F31  1  1.07130170  1.31876165  0.98763211  1
  F  F32  1  1.06876165  0.82130170  1.23763211  1
  F  F33  1  0.43123835  0.17869830  1.73763211  1
  F  F34  1  0.42869830  1.81876165  1.48763211  1
  F  F35  1  1.07130170  0.18123835  1.98763211  1
  F  F36  1  0.43123835  0.82130170  0.26236789  1
  F  F37  1  1.06876165  0.17869830  -0.23763211  1
  F  F38  1  1.07130170  1.81876165  0.01236789  1
  F  F39  1  0.42869830  0.18123835  0.51236789  1
  F  F40  1  -0.06876165  0.17869830  -0.23763211  1
  F  F41  1  1.56876165  0.82130170  0.26236789  1
  F  F42  1  1.57130170  0.18123835  0.51236789  1
  F  F43  1  0.92869830  1.81876165  0.01236789  1
  F  F44  1  1.56876165  0.17869830  1.73763211  1
  F  F45  1  -0.06876165  0.82130170  1.23763211  1
  F  F46  1  0.92869830  0.18123835  1.98763211  1
  F  F47  1  1.57130170  1.81876165  1.48763211  1
  Li  Li48  1  0.00000000  0.00000000  0.50000000  1
  Li  Li49  1  0.50000000  0.00000000  0.00000000  1
  Li  Li50  1  0.25000000  0.75000000  0.75000000  1
  Li  Li51  1  0.25000000  0.25000000  0.25000000  1
  Li  Li52  1  0.50000000  0.50000000  0.00000000  1
  Li  Li53  1  0.00000000  0.50000000  0.50000000  1
  Li  Li54  1  0.75000000  0.25000000  0.25000000  1
  Li  Li55  1  0.75000000  0.75000000  0.75000000  1
  Si  Si56  1  0.18467890  0.00000000  -0.00000000  1
  Si  Si57  1  0.31532110  0.00000000  0.50000000  1
  Si  Si58  1  0.25000000  0.93467890  0.25000000  1
  Si  Si59  1  0.25000000  0.06532110  0.75000000  1
  Si  Si60  1  0.81532110  0.00000000  0.00000000  1
  Si  Si61  1  0.68467890  0.00000000  0.50000000  1
  Si  Si62  1  0.75000000  0.06532110  0.75000000  1
  Si  Si63  1  0.75000000  0.93467890  0.25000000  1
  Si  Si64  1  0.68467890  0.50000000  0.50000000  1
  Si  Si65  1  0.81532110  0.50000000  -0.00000000  1
  Si  Si66  1  0.75000000  0.43467890  0.75000000  1
  Si  Si67  1  0.75000000  0.56532110  0.25000000  1
  Si  Si68  1  0.31532110  0.50000000  0.50000000  1
  Si  Si69  1  0.18467890  0.50000000  0.00000000  1
  Si  Si70  1  0.25000000  0.56532110  0.25000000  1
  Si  Si71  1  0.25000000  0.43467890  0.75000000  1
  Te  Te72  1  0.00000000  0.00000000  0.00000000  1
  Te  Te73  1  0.50000000  0.00000000  0.50000000  1
  Te  Te74  1  0.25000000  0.75000000  0.25000000  1
  Te  Te75  1  0.25000000  0.25000000  0.75000000  1
  Te  Te76  1  0.50000000  0.50000000  0.50000000  1
  Te  Te77  1  0.00000000  0.50000000  0.00000000  1
  Te  Te78  1  0.75000000  0.25000000  0.75000000  1
  Te  Te79  1  0.75000000  0.75000000  0.25000000  1
  Te  Te80  1  0.00000000  0.25000000  0.37500000  1
  Te  Te81  1  0.00000000  0.75000000  0.62500000  1
  Te  Te82  1  0.50000000  0.75000000  0.87500000  1
  Te  Te83  1  0.50000000  0.25000000  0.12500000  1
