# generated using pymatgen
data_Li3Y2P3Se2
_symmetry_space_group_name_H-M   'P 1'
_cell_length_a   5.83776040
_cell_length_b   6.18621517
_cell_length_c   7.49960743
_cell_angle_alpha   93.26410243
_cell_angle_beta   97.10853649
_cell_angle_gamma   103.11060216
_symmetry_Int_Tables_number   1
_chemical_formula_structural   Li3Y2P3Se2
_chemical_formula_sum   'Li3 Y2 P3 Se2'
_cell_volume   260.73639826
_cell_formula_units_Z   1
loop_
 _symmetry_equiv_pos_site_id
 _symmetry_equiv_pos_as_xyz
  1  'x, y, z'
loop_
 _atom_site_type_symbol
 _atom_site_label
 _atom_site_symmetry_multiplicity
 _atom_site_fract_x
 _atom_site_fract_y
 _atom_site_fract_z
 _atom_site_occupancy
  Se  Se0  1  0.12500000  0.12500000  0.12500000  1
  Se  Se1  1  0.50000000  0.50000000  0.50000000  1
  Y  Y2  1  0.25000000  0.25000000  0.25000000  1
  Y  Y3  1  0.75000000  0.75000000  0.75000000  1
  P  P4  1  0.84448023  0.42373363  0.58287634  1
  P  P5  1  0.23922780  0.29559473  0.30191296  1
  P  P6  1  0.70475905  0.12033597  0.03556547  1
  Li  Li7  1  0.88097625  0.09694728  0.39101454  1
  Li  Li8  1  0.93145204  0.85878586  0.27855314  1
  Li  Li9  1  0.14912284  0.53507455  0.85238960  1
