# generated using pymatgen
data_LiF
_symmetry_space_group_name_H-M   'P 1'
_cell_length_a   15.86085716
_cell_length_b   11.00605029
_cell_length_c   8.71051628
_cell_angle_alpha   90.00000000
_cell_angle_beta   90.00000000
_cell_angle_gamma   90.00000000
_symmetry_Int_Tables_number   1
_chemical_formula_structural   LiF
_chemical_formula_sum   'Li68 F68'
_cell_volume   1520.55468639
_cell_formula_units_Z   68
loop_
 _symmetry_equiv_pos_site_id
 _symmetry_equiv_pos_as_xyz
  1  'x, y, z'
loop_
 _atom_site_type_symbol
 _atom_site_label
 _atom_site_symmetry_multiplicity
 _atom_site_fract_x
 _atom_site_fract_y
 _atom_site_fract_z
 _atom_site_occupancy
  F  F0  1  0.93323394  0.02789761  0.62483462  1
  F  F1  1  0.56676606  0.97210239  0.12483462  1
  F  F2  1  0.06676606  0.52789761  0.37516538  1
  F  F3  1  0.43323394  0.47210239  0.87516538  1
  F  F4  1  0.06676606  0.97210239  0.37516538  1
  F  F5  1  0.43323394  0.02789761  0.87516538  1
  F  F6  1  0.93323394  0.47210239  0.62483462  1
  F  F7  1  0.56676606  0.52789761  0.12483462  1
  F  F8  1  0.13064145  0.59742821  0.03805498  1
  F  F9  1  0.36935855  0.40257179  0.53805498  1
  F  F10  1  0.86935855  0.09742821  0.96194502  1
  F  F11  1  0.63064145  0.90257179  0.46194502  1
  F  F12  1  0.86935855  0.40257179  0.96194502  1
  F  F13  1  0.63064145  0.59742821  0.46194502  1
  F  F14  1  0.13064145  0.90257179  0.03805498  1
  F  F15  1  0.36935855  0.09742821  0.53805498  1
  F  F16  1  0.30460099  0.00663699  0.60301117  1
  F  F17  1  0.19539901  0.99336301  0.10301117  1
  F  F18  1  0.69539901  0.50663699  0.39698883  1
  F  F19  1  0.80460099  0.49336301  0.89698883  1
  F  F20  1  0.69539901  0.99336301  0.39698883  1
  F  F21  1  0.80460099  0.00663699  0.89698883  1
  F  F22  1  0.30460099  0.49336301  0.60301117  1
  F  F23  1  0.19539901  0.50663699  0.10301117  1
  F  F24  1  0.24385601  0.97666071  0.53472641  1
  F  F25  1  0.25614399  0.02333929  0.03472641  1
  F  F26  1  0.75614399  0.47666071  0.46527359  1
  F  F27  1  0.74385601  0.52333929  0.96527359  1
  F  F28  1  0.75614399  0.02333929  0.46527359  1
  F  F29  1  0.74385601  0.97666071  0.96527359  1
  F  F30  1  0.24385601  0.52333929  0.53472641  1
  F  F31  1  0.25614399  0.47666071  0.03472641  1
  F  F32  1  0.15421412  0.25000000  0.80944519  1
  F  F33  1  0.34578588  0.75000000  0.30944519  1
  F  F34  1  0.84578588  0.75000000  0.19055481  1
  F  F35  1  0.65421412  0.25000000  0.69055481  1
  F  F36  1  0.92957079  0.82379541  0.07119045  1
  F  F37  1  0.57042921  0.17620459  0.57119045  1
  F  F38  1  0.07042921  0.32379541  0.92880955  1
  F  F39  1  0.42957079  0.67620459  0.42880955  1
  F  F40  1  0.07042921  0.17620459  0.92880955  1
  F  F41  1  0.42957079  0.82379541  0.42880955  1
  F  F42  1  0.92957079  0.67620459  0.07119045  1
  F  F43  1  0.57042921  0.32379541  0.57119045  1
  F  F44  1  0.81953750  0.40490751  0.86944216  1
  F  F45  1  0.68046250  0.59509249  0.36944216  1
  F  F46  1  0.18046250  0.90490751  0.13055784  1
  F  F47  1  0.31953750  0.09509249  0.63055784  1
  F  F48  1  0.18046250  0.59509249  0.13055784  1
  F  F49  1  0.31953750  0.40490751  0.63055784  1
  F  F50  1  0.81953750  0.09509249  0.86944216  1
  F  F51  1  0.68046250  0.90490751  0.36944216  1
  F  F52  1  0.03788432  0.04304105  0.25114814  1
  F  F53  1  0.46211568  0.95695895  0.75114814  1
  F  F54  1  0.96211568  0.54304105  0.74885186  1
  F  F55  1  0.53788432  0.45695895  0.24885186  1
  F  F56  1  0.96211568  0.95695895  0.74885186  1
  F  F57  1  0.53788432  0.04304105  0.24885186  1
  F  F58  1  0.03788432  0.45695895  0.25114814  1
  F  F59  1  0.46211568  0.54304105  0.75114814  1
  F  F60  1  0.31850469  0.18980633  0.59999240  1
  F  F61  1  0.18149531  0.81019367  0.09999240  1
  F  F62  1  0.68149531  0.68980633  0.40000760  1
  F  F63  1  0.81850469  0.31019367  0.90000760  1
  F  F64  1  0.68149531  0.81019367  0.40000760  1
  F  F65  1  0.81850469  0.18980633  0.90000760  1
  F  F66  1  0.31850469  0.31019367  0.59999240  1
  F  F67  1  0.18149531  0.68980633  0.09999240  1
  Li  Li68  1  0.92351733  0.25000000  0.28755930  1
  Li  Li69  1  0.57648267  0.75000000  0.78755930  1
  Li  Li70  1  0.07648267  0.75000000  0.71244070  1
  Li  Li71  1  0.42351733  0.25000000  0.21244070  1
  Li  Li72  1  0.83941782  0.25000000  0.70512066  1
  Li  Li73  1  0.66058218  0.75000000  0.20512066  1
  Li  Li74  1  0.16058218  0.75000000  0.29487934  1
  Li  Li75  1  0.33941782  0.25000000  0.79487934  1
  Li  Li76  1  0.45297512  0.09855503  0.82845527  1
  Li  Li77  1  0.04702488  -0.09855503  1.32845527  1
  Li  Li78  1  -0.45297512  0.59855503  -0.82845527  1
  Li  Li79  1  0.95297512  0.40144497  -0.32845527  1
  Li  Li80  1  -0.45297512  -0.09855503  -0.82845527  1
  Li  Li81  1  0.95297512  0.09855503  -0.32845527  1
  Li  Li82  1  0.45297512  0.40144497  0.82845527  1
  Li  Li83  1  0.04702488  0.59855503  1.32845527  1
  Li  Li84  1  0.96893595  0.25000000  0.01282033  1
  Li  Li85  1  0.53106405  0.75000000  0.51282033  1
  Li  Li86  1  0.03106405  0.75000000  0.98717967  1
  Li  Li87  1  0.46893595  0.25000000  0.48717967  1
  Li  Li88  1  0.90389755  0.05761862  0.18726597  1
  Li  Li89  1  0.59610245  0.94238138  0.68726597  1
  Li  Li90  1  0.09610245  0.55761862  0.81273403  1
  Li  Li91  1  0.40389755  0.44238138  0.31273403  1
  Li  Li92  1  0.09610245  0.94238138  0.81273403  1
  Li  Li93  1  0.40389755  0.05761862  0.31273403  1
  Li  Li94  1  0.90389755  0.44238138  0.18726597  1
  Li  Li95  1  0.59610245  0.55761862  0.68726597  1
  Li  Li96  1  0.78011616  0.51718531  0.78780036  1
  Li  Li97  1  0.71988384  0.48281469  0.28780036  1
  Li  Li98  1  0.21988384  0.01718531  0.21219964  1
  Li  Li99  1  0.28011616  0.98281469  0.71219964  1
  Li  Li100  1  0.21988384  0.48281469  0.21219964  1
  Li  Li101  1  0.28011616  0.51718531  0.71219964  1
  Li  Li102  1  0.78011616  0.98281469  0.78780036  1
  Li  Li103  1  0.71988384  0.01718531  0.28780036  1
  Li  Li104  1  0.98089472  0.12861744  0.00256159  1
  Li  Li105  1  0.51910528  0.87138256  0.50256159  1
  Li  Li106  1  0.01910528  0.62861744  0.99743841  1
  Li  Li107  1  0.48089472  0.37138256  0.49743841  1
  Li  Li108  1  0.01910528  0.87138256  0.99743841  1
  Li  Li109  1  0.48089472  0.12861744  0.49743841  1
  Li  Li110  1  0.98089472  0.37138256  0.00256159  1
  Li  Li111  1  0.51910528  0.62861744  0.50256159  1
  Li  Li112  1  0.98758968  0.91811707  0.22410615  1
  Li  Li113  1  0.51241032  0.08188293  0.72410615  1
  Li  Li114  1  0.01241032  0.41811707  0.77589385  1
  Li  Li115  1  0.48758968  0.58188293  0.27589385  1
  Li  Li116  1  0.01241032  0.08188293  0.77589385  1
  Li  Li117  1  0.48758968  0.91811707  0.27589385  1
  Li  Li118  1  0.98758968  0.58188293  0.22410615  1
  Li  Li119  1  0.51241032  0.41811707  0.72410615  1
  Li  Li120  1  0.82894184  0.25000000  0.01421625  1
  Li  Li121  1  0.67105816  0.75000000  0.51421625  1
  Li  Li122  1  0.17105816  0.75000000  0.98578375  1
  Li  Li123  1  0.32894184  0.25000000  0.48578375  1
  Li  Li124  1  0.00000000  0.00000000  0.50000000  1
  Li  Li125  1  0.50000000  -0.00000000  0.00000000  1
  Li  Li126  1  0.00000000  0.50000000  0.50000000  1
  Li  Li127  1  0.50000000  0.50000000  -0.00000000  1
  Li  Li128  1  0.00000000  0.00000000  0.00000000  1
  Li  Li129  1  0.50000000  -0.00000000  0.50000000  1
  Li  Li130  1  0.00000000  0.50000000  0.00000000  1
  Li  Li131  1  0.50000000  0.50000000  0.50000000  1
  Li  Li132  1  0.60237777  0.25000000  0.48678155  1
  Li  Li133  1  0.89762223  0.75000000  0.98678155  1
  Li  Li134  1  0.39762223  0.75000000  0.51321845  1
  Li  Li135  1  0.10237777  0.25000000  0.01321845  1
