# generated using pymatgen
data_LiF
_symmetry_space_group_name_H-M   'P 1'
_cell_length_a   7.26652230
_cell_length_b   14.30070840
_cell_length_c   8.40998520
_cell_angle_alpha   90.00000000
_cell_angle_beta   90.00000000
_cell_angle_gamma   90.00000000
_symmetry_Int_Tables_number   1
_chemical_formula_structural   LiF
_chemical_formula_sum   'Li28 F28'
_cell_volume   873.93552483
_cell_formula_units_Z   28
loop_
 _symmetry_equiv_pos_site_id
 _symmetry_equiv_pos_as_xyz
  1  'x, y, z'
loop_
 _atom_site_type_symbol
 _atom_site_label
 _atom_site_symmetry_multiplicity
 _atom_site_fract_x
 _atom_site_fract_y
 _atom_site_fract_z
 _atom_site_occupancy
  F  F0  1  0.82138137  0.70869018  0.77878949  1
  F  F1  1  0.67861863  0.29130982  0.27878949  1
  F  F2  1  0.17861863  0.20869018  0.22121051  1
  F  F3  1  0.32138137  0.79130982  0.72121051  1
  F  F4  1  0.17861863  0.29130982  0.22121051  1
  F  F5  1  0.32138137  0.70869018  0.72121051  1
  F  F6  1  0.82138137  0.79130982  0.77878949  1
  F  F7  1  0.67861863  0.20869018  0.27878949  1
  F  F8  1  0.08324533  0.09618896  0.96398147  1
  F  F9  1  0.41675467  0.90381104  0.46398147  1
  F  F10  1  0.91675467  0.59618896  0.03601853  1
  F  F11  1  0.58324533  0.40381104  0.53601853  1
  F  F12  1  0.91675467  0.90381104  0.03601853  1
  F  F13  1  0.58324533  0.09618896  0.53601853  1
  F  F14  1  0.08324533  0.40381104  0.96398147  1
  F  F15  1  0.41675467  0.59618896  0.46398147  1
  F  F16  1  0.62652015  0.54597912  0.29480951  1
  F  F17  1  0.87347985  0.45402088  0.79480951  1
  F  F18  1  0.37347985  0.04597912  0.70519049  1
  F  F19  1  0.12652015  0.95402088  0.20519049  1
  F  F20  1  0.37347985  0.45402088  0.70519049  1
  F  F21  1  0.12652015  0.54597912  0.20519049  1
  F  F22  1  0.62652015  0.95402088  0.29480951  1
  F  F23  1  0.87347985  0.04597912  0.79480951  1
  F  F24  1  0.71512490  0.25000000  0.82826059  1
  F  F25  1  0.78487510  0.75000000  0.32826059  1
  F  F26  1  0.28487510  0.75000000  0.17173941  1
  F  F27  1  0.21512490  0.25000000  0.67173941  1
  Li  Li28  1  0.78985024  0.56460414  0.38264818  1
  Li  Li29  1  -0.28985024  -0.56460414  0.88264818  1
  Li  Li30  1  -0.78985024  1.06460414  -0.38264818  1
  Li  Li31  1  1.28985024  -0.06460414  0.11735182  1
  Li  Li32  1  -0.78985024  -0.56460414  -0.38264818  1
  Li  Li33  1  1.28985024  0.56460414  0.11735182  1
  Li  Li34  1  0.78985024  -0.06460414  0.38264818  1
  Li  Li35  1  -0.28985024  1.06460414  0.88264818  1
  Li  Li36  1  0.53208154  0.25000000  0.74835526  1
  Li  Li37  1  0.96791846  0.75000000  0.24835526  1
  Li  Li38  1  0.46791846  0.75000000  0.25164474  1
  Li  Li39  1  0.03208154  0.25000000  0.75164474  1
  Li  Li40  1  0.86801117  0.18614035  0.71632560  1
  Li  Li41  1  0.63198883  0.81385965  0.21632560  1
  Li  Li42  1  0.13198883  0.68614035  0.28367440  1
  Li  Li43  1  0.36801117  0.31385965  0.78367440  1
  Li  Li44  1  0.13198883  0.81385965  0.28367440  1
  Li  Li45  1  0.36801117  0.18614035  0.78367440  1
  Li  Li46  1  0.86801117  0.31385965  0.71632560  1
  Li  Li47  1  0.63198883  0.68614035  0.21632560  1
  Li  Li48  1  0.00000000  0.00000000  0.50000000  1
  Li  Li49  1  0.50000000  0.00000000  0.00000000  1
  Li  Li50  1  0.00000000  0.50000000  0.50000000  1
  Li  Li51  1  0.50000000  0.50000000  0.00000000  1
  Li  Li52  1  0.00000000  0.00000000  0.00000000  1
  Li  Li53  1  0.50000000  0.00000000  0.50000000  1
  Li  Li54  1  0.00000000  0.50000000  0.00000000  1
  Li  Li55  1  0.50000000  0.50000000  0.50000000  1
