# generated using pymatgen
data_Li3(YP)2
_symmetry_space_group_name_H-M   'P 1'
_cell_length_a   5.18126797
_cell_length_b   5.32923500
_cell_length_c   7.07578118
_cell_angle_alpha   94.09779504
_cell_angle_beta   99.07889100
_cell_angle_gamma   106.64606016
_symmetry_Int_Tables_number   1
_chemical_formula_structural   Li3(YP)2
_chemical_formula_sum   'Li3 Y2 P2'
_cell_volume   183.43429575
_cell_formula_units_Z   1
loop_
 _symmetry_equiv_pos_site_id
 _symmetry_equiv_pos_as_xyz
  1  'x, y, z'
loop_
 _atom_site_type_symbol
 _atom_site_label
 _atom_site_symmetry_multiplicity
 _atom_site_fract_x
 _atom_site_fract_y
 _atom_site_fract_z
 _atom_site_occupancy
  Y  Y0  1  0.12500000  0.12500000  0.12500000  1
  Y  Y1  1  0.50000000  0.50000000  0.50000000  1
  P  P2  1  0.25000000  0.25000000  0.25000000  1
  P  P3  1  0.75000000  0.75000000  0.75000000  1
  Li  Li4  1  0.55438084  0.04421984  0.28488958  1
  Li  Li5  1  0.20512911  0.62622367  0.59843975  1
  Li  Li6  1  0.84563314  0.09248554  0.44686856  1
