# generated using pymatgen
data_LiF
_symmetry_space_group_name_H-M   'P 1'
_cell_length_a   13.70898809
_cell_length_b   13.70898809
_cell_length_c   9.58408026
_cell_angle_alpha   90.00000000
_cell_angle_beta   90.00000000
_cell_angle_gamma   120.00000000
_symmetry_Int_Tables_number   1
_chemical_formula_structural   LiF
_chemical_formula_sum   'Li48 F48'
_cell_volume   1559.88245009
_cell_formula_units_Z   48
loop_
 _symmetry_equiv_pos_site_id
 _symmetry_equiv_pos_as_xyz
  1  'x, y, z'
loop_
 _atom_site_type_symbol
 _atom_site_label
 _atom_site_symmetry_multiplicity
 _atom_site_fract_x
 _atom_site_fract_y
 _atom_site_fract_z
 _atom_site_occupancy
  F  F0  1  0.33268603  0.84639327  0.11367517  1
  F  F1  1  0.15360673  0.48629275  0.11367517  1
  F  F2  1  0.51370725  0.66731397  0.11367517  1
  F  F3  1  0.66731397  0.15360673  0.61367517  1
  F  F4  1  0.84639327  0.51370725  0.61367517  1
  F  F5  1  0.48629275  0.33268603  0.61367517  1
  F  F6  1  0.66731397  0.15360673  0.88632483  1
  F  F7  1  0.84639327  0.51370725  0.88632483  1
  F  F8  1  0.48629275  0.33268603  0.88632483  1
  F  F9  1  0.33268603  0.84639327  0.38632483  1
  F  F10  1  0.15360673  0.48629275  0.38632483  1
  F  F11  1  0.51370725  0.66731397  0.38632483  1
  F  F12  1  0.57183039  0.52047872  0.66023063  1
  F  F13  1  0.47952128  0.05135167  0.66023063  1
  F  F14  1  0.94864833  0.42816961  0.66023063  1
  F  F15  1  0.42816961  0.47952128  0.16023063  1
  F  F16  1  0.52047872  0.94864833  0.16023063  1
  F  F17  1  0.05135167  0.57183039  0.16023063  1
  F  F18  1  0.42816961  0.47952128  0.33976937  1
  F  F19  1  0.52047872  0.94864833  0.33976937  1
  F  F20  1  0.05135167  0.57183039  0.33976937  1
  F  F21  1  0.57183039  0.52047872  0.83976937  1
  F  F22  1  0.47952128  0.05135167  0.83976937  1
  F  F23  1  0.94864833  0.42816961  0.83976937  1
  F  F24  1  0.36174015  0.71121096  0.25000000  1
  F  F25  1  0.28878904  0.65052919  0.25000000  1
  F  F26  1  0.34947081  0.63825985  0.25000000  1
  F  F27  1  0.63825985  0.28878904  0.75000000  1
  F  F28  1  0.71121096  0.34947081  0.75000000  1
  F  F29  1  0.65052919  0.36174015  0.75000000  1
  F  F30  1  0.80802215  0.86824892  0.31720961  1
  F  F31  1  0.13175108  0.93977323  0.31720961  1
  F  F32  1  0.06022677  0.19197785  0.31720961  1
  F  F33  1  0.19197785  0.13175108  0.81720961  1
  F  F34  1  0.86824892  0.06022677  0.81720961  1
  F  F35  1  0.93977323  0.80802215  0.81720961  1
  F  F36  1  0.19197785  0.13175108  0.68279039  1
  F  F37  1  0.86824892  0.06022677  0.68279039  1
  F  F38  1  0.93977323  0.80802215  0.68279039  1
  F  F39  1  0.80802215  0.86824892  0.18279039  1
  F  F40  1  0.13175108  0.93977323  0.18279039  1
  F  F41  1  0.06022677  0.19197785  0.18279039  1
  F  F42  1  0.75257194  0.08375283  0.25000000  1
  F  F43  1  0.91624717  0.66881911  0.25000000  1
  F  F44  1  0.33118089  0.24742806  0.25000000  1
  F  F45  1  0.24742806  0.91624717  0.75000000  1
  F  F46  1  0.08375283  0.33118089  0.75000000  1
  F  F47  1  0.66881911  0.75257194  0.75000000  1
  Li  Li48  1  0.72684774  0.11714044  0.16265161  1
  Li  Li49  1  -0.11714044  0.60970730  0.16265161  1
  Li  Li50  1  -0.60970730  -0.72684774  0.16265161  1
  Li  Li51  1  -0.72684774  -0.11714044  0.66265161  1
  Li  Li52  1  0.11714044  -0.60970730  0.66265161  1
  Li  Li53  1  0.60970730  0.72684774  0.66265161  1
  Li  Li54  1  -0.72684774  -0.11714044  -0.16265161  1
  Li  Li55  1  0.11714044  -0.60970730  -0.16265161  1
  Li  Li56  1  0.60970730  0.72684774  -0.16265161  1
  Li  Li57  1  0.72684774  0.11714044  0.33734839  1
  Li  Li58  1  -0.11714044  0.60970730  0.33734839  1
  Li  Li59  1  -0.60970730  -0.72684774  0.33734839  1
  Li  Li60  1  0.79001854  0.64122428  0.25000000  1
  Li  Li61  1  0.35877572  0.14879426  0.25000000  1
  Li  Li62  1  0.85120574  0.20998146  0.25000000  1
  Li  Li63  1  0.20998146  0.35877572  0.75000000  1
  Li  Li64  1  0.64122428  0.85120574  0.75000000  1
  Li  Li65  1  0.14879426  0.79001854  0.75000000  1
  Li  Li66  1  0.50000000  0.00000000  0.00000000  1
  Li  Li67  1  0.00000000  0.50000000  0.00000000  1
  Li  Li68  1  0.50000000  0.50000000  0.00000000  1
  Li  Li69  1  0.50000000  0.00000000  0.50000000  1
  Li  Li70  1  0.00000000  0.50000000  0.50000000  1
  Li  Li71  1  0.50000000  0.50000000  0.50000000  1
  Li  Li72  1  0.33333333  0.66666667  0.94008500  1
  Li  Li73  1  0.66666667  0.33333333  0.44008500  1
  Li  Li74  1  0.66666667  0.33333333  0.05991500  1
  Li  Li75  1  0.33333333  0.66666667  0.55991500  1
  Li  Li76  1  0.18854528  0.48315539  0.25000000  1
  Li  Li77  1  0.51684461  0.70538989  0.25000000  1
  Li  Li78  1  0.29461011  0.81145472  0.25000000  1
  Li  Li79  1  0.81145472  0.51684461  0.75000000  1
  Li  Li80  1  0.48315539  0.29461011  0.75000000  1
  Li  Li81  1  0.70538989  0.18854528  0.75000000  1
  Li  Li82  1  0.59705142  0.67012098  0.03547850  1
  Li  Li83  1  0.32987902  0.92693044  0.03547850  1
  Li  Li84  1  0.07306956  0.40294858  0.03547850  1
  Li  Li85  1  0.40294858  0.32987902  0.53547850  1
  Li  Li86  1  0.67012098  0.07306956  0.53547850  1
  Li  Li87  1  0.92693044  0.59705142  0.53547850  1
  Li  Li88  1  0.40294858  0.32987902  0.96452150  1
  Li  Li89  1  0.67012098  0.07306956  0.96452150  1
  Li  Li90  1  0.92693044  0.59705142  0.96452150  1
  Li  Li91  1  0.59705142  0.67012098  0.46452150  1
  Li  Li92  1  0.32987902  0.92693044  0.46452150  1
  Li  Li93  1  0.07306956  0.40294858  0.46452150  1
  Li  Li94  1  0.00000000  0.00000000  0.25000000  1
  Li  Li95  1  0.00000000  0.00000000  0.75000000  1
