# generated using pymatgen
data_LiF
_symmetry_space_group_name_H-M   'P 1'
_cell_length_a   9.99155686
_cell_length_b   9.29264985
_cell_length_c   8.19068437
_cell_angle_alpha   90.00000000
_cell_angle_beta   90.00000000
_cell_angle_gamma   90.00000000
_symmetry_Int_Tables_number   1
_chemical_formula_structural   LiF
_chemical_formula_sum   'Li24 F24'
_cell_volume   760.48898454
_cell_formula_units_Z   24
loop_
 _symmetry_equiv_pos_site_id
 _symmetry_equiv_pos_as_xyz
  1  'x, y, z'
loop_
 _atom_site_type_symbol
 _atom_site_label
 _atom_site_symmetry_multiplicity
 _atom_site_fract_x
 _atom_site_fract_y
 _atom_site_fract_z
 _atom_site_occupancy
  F  F0  1  0.18627378  0.64835765  0.28553762  1
  F  F1  1  0.31372622  0.35164235  0.78553762  1
  F  F2  1  0.81372622  0.14835765  0.71446238  1
  F  F3  1  0.68627378  0.85164235  0.21446238  1
  F  F4  1  0.81372622  0.35164235  0.71446238  1
  F  F5  1  0.68627378  0.64835765  0.21446238  1
  F  F6  1  0.18627378  0.85164235  0.28553762  1
  F  F7  1  0.31372622  0.14835765  0.78553762  1
  F  F8  1  0.57902767  0.31905038  0.16472647  1
  F  F9  1  0.92097233  0.68094962  0.66472647  1
  F  F10  1  0.42097233  0.81905038  0.83527353  1
  F  F11  1  0.07902767  0.18094962  0.33527353  1
  F  F12  1  0.42097233  0.68094962  0.83527353  1
  F  F13  1  0.07902767  0.31905038  0.33527353  1
  F  F14  1  0.57902767  0.18094962  0.16472647  1
  F  F15  1  0.92097233  0.81905038  0.66472647  1
  F  F16  1  0.00000000  0.00000000  0.50000000  1
  F  F17  1  0.50000000  0.00000000  0.00000000  1
  F  F18  1  0.00000000  0.50000000  0.50000000  1
  F  F19  1  0.50000000  0.50000000  0.00000000  1
  F  F20  1  0.57238909  0.25000000  0.76906779  1
  F  F21  1  0.92761091  0.75000000  0.26906779  1
  F  F22  1  0.42761091  0.75000000  0.23093221  1
  F  F23  1  0.07238909  0.25000000  0.73093221  1
  Li  Li24  1  0.47602675  0.53029095  0.11021159  1
  Li  Li25  1  0.02397325  -0.53029095  0.61021159  1
  Li  Li26  1  -0.47602675  1.03029095  -0.11021159  1
  Li  Li27  1  0.97602675  -0.03029095  0.38978841  1
  Li  Li28  1  -0.47602675  -0.53029095  -0.11021159  1
  Li  Li29  1  0.97602675  0.53029095  0.38978841  1
  Li  Li30  1  0.47602675  -0.03029095  0.11021159  1
  Li  Li31  1  0.02397325  1.03029095  0.61021159  1
  Li  Li32  1  0.64309577  0.95563005  0.41609571  1
  Li  Li33  1  0.85690423  0.04436995  0.91609571  1
  Li  Li34  1  0.35690423  0.45563005  0.58390429  1
  Li  Li35  1  0.14309577  0.54436995  0.08390429  1
  Li  Li36  1  0.35690423  0.04436995  0.58390429  1
  Li  Li37  1  0.14309577  0.95563005  0.08390429  1
  Li  Li38  1  0.64309577  0.54436995  0.41609571  1
  Li  Li39  1  0.85690423  0.45563005  0.91609571  1
  Li  Li40  1  0.00000000  0.00000000  0.00000000  1
  Li  Li41  1  0.50000000  0.00000000  0.50000000  1
  Li  Li42  1  0.00000000  0.50000000  0.00000000  1
  Li  Li43  1  0.50000000  0.50000000  0.50000000  1
  Li  Li44  1  0.18617087  0.25000000  0.61195447  1
  Li  Li45  1  0.31382913  0.75000000  0.11195447  1
  Li  Li46  1  0.81382913  0.75000000  0.38804553  1
  Li  Li47  1  0.68617087  0.25000000  0.88804553  1
