# generated using pymatgen
data_LiF
_symmetry_space_group_name_H-M   'P 1'
_cell_length_a   16.84938418
_cell_length_b   16.84938418
_cell_length_c   5.99236307
_cell_angle_alpha   90.00000000
_cell_angle_beta   90.00000000
_cell_angle_gamma   120.00000000
_symmetry_Int_Tables_number   1
_chemical_formula_structural   LiF
_chemical_formula_sum   'Li78 F78'
_cell_volume   1473.31908788
_cell_formula_units_Z   78
loop_
 _symmetry_equiv_pos_site_id
 _symmetry_equiv_pos_as_xyz
  1  'x, y, z'
loop_
 _atom_site_type_symbol
 _atom_site_label
 _atom_site_symmetry_multiplicity
 _atom_site_fract_x
 _atom_site_fract_y
 _atom_site_fract_z
 _atom_site_occupancy
  F  F0  1  0.50000000  0.00000000  -0.00000000  1
  F  F1  1  0.00000000  0.50000000  0.00000000  1
  F  F2  1  0.50000000  0.50000000  -0.00000000  1
  F  F3  1  0.00000000  0.50000000  0.50000000  1
  F  F4  1  0.50000000  0.00000000  0.50000000  1
  F  F5  1  0.50000000  0.50000000  0.50000000  1
  F  F6  1  0.16666667  0.33333333  0.33333333  1
  F  F7  1  0.66666667  0.83333333  0.33333333  1
  F  F8  1  0.16666667  0.83333333  0.33333333  1
  F  F9  1  0.66666667  0.83333333  0.83333333  1
  F  F10  1  0.16666667  0.33333333  0.83333333  1
  F  F11  1  0.16666667  0.83333333  0.83333333  1
  F  F12  1  0.83333333  0.66666667  0.66666667  1
  F  F13  1  0.33333333  0.16666667  0.66666667  1
  F  F14  1  0.83333333  0.16666667  0.66666667  1
  F  F15  1  0.33333333  0.16666667  0.16666667  1
  F  F16  1  0.83333333  0.66666667  0.16666667  1
  F  F17  1  0.83333333  0.16666667  0.16666667  1
  F  F18  1  0.22658972  0.00000000  0.25000000  1
  F  F19  1  0.00000000  0.22658972  0.25000000  1
  F  F20  1  0.77341028  0.77341028  0.25000000  1
  F  F21  1  0.77341028  0.00000000  0.75000000  1
  F  F22  1  0.00000000  0.77341028  0.75000000  1
  F  F23  1  0.22658972  0.22658972  0.75000000  1
  F  F24  1  0.89325639  0.33333333  0.58333333  1
  F  F25  1  0.66666667  0.55992305  0.58333333  1
  F  F26  1  0.44007695  0.10674361  0.58333333  1
  F  F27  1  0.44007695  0.33333333  0.08333333  1
  F  F28  1  0.66666667  0.10674361  0.08333333  1
  F  F29  1  0.89325639  0.55992305  0.08333333  1
  F  F30  1  0.55992305  0.66666667  0.91666667  1
  F  F31  1  0.33333333  0.89325639  0.91666667  1
  F  F32  1  0.10674361  0.44007695  0.91666667  1
  F  F33  1  0.10674361  0.66666667  0.41666667  1
  F  F34  1  0.33333333  0.44007695  0.41666667  1
  F  F35  1  0.55992305  0.89325639  0.41666667  1
  F  F36  1  0.96623109  0.51797893  0.84273066  1
  F  F37  1  0.48202107  0.44825216  0.84273066  1
  F  F38  1  0.55174784  0.03376891  0.84273066  1
  F  F39  1  0.51797893  0.96623109  0.65726934  1
  F  F40  1  0.44825216  0.48202107  0.65726934  1
  F  F41  1  0.03376891  0.55174784  0.65726934  1
  F  F42  1  0.03376891  0.48202107  0.15726934  1
  F  F43  1  0.51797893  0.55174784  0.15726934  1
  F  F44  1  0.44825216  0.96623109  0.15726934  1
  F  F45  1  0.48202107  0.03376891  0.34273066  1
  F  F46  1  0.55174784  0.51797893  0.34273066  1
  F  F47  1  0.96623109  0.44825216  0.34273066  1
  F  F48  1  0.63289776  0.85131227  0.17606399  1
  F  F49  1  0.14868773  0.78158549  0.17606399  1
  F  F50  1  0.21841451  0.36710224  0.17606399  1
  F  F51  1  0.18464560  0.29956443  0.99060267  1
  F  F52  1  0.11491883  0.81535440  0.99060267  1
  F  F53  1  0.70043557  0.88508117  0.99060267  1
  F  F54  1  0.70043557  0.81535440  0.49060267  1
  F  F55  1  0.18464560  0.88508117  0.49060267  1
  F  F56  1  0.11491883  0.29956443  0.49060267  1
  F  F57  1  0.14868773  0.36710224  0.67606399  1
  F  F58  1  0.21841451  0.85131227  0.67606399  1
  F  F59  1  0.63289776  0.78158549  0.67606399  1
  F  F60  1  0.29956443  0.18464560  0.50939733  1
  F  F61  1  0.81535440  0.11491883  0.50939733  1
  F  F62  1  0.88508117  0.70043557  0.50939733  1
  F  F63  1  0.85131227  0.63289776  0.32393601  1
  F  F64  1  0.78158549  0.14868773  0.32393601  1
  F  F65  1  0.36710224  0.21841451  0.32393601  1
  F  F66  1  0.36710224  0.14868773  0.82393601  1
  F  F67  1  0.85131227  0.21841451  0.82393601  1
  F  F68  1  0.78158549  0.63289776  0.82393601  1
  F  F69  1  0.81535440  0.70043557  0.00939733  1
  F  F70  1  0.88508117  0.18464560  0.00939733  1
  F  F71  1  0.29956443  0.11491883  0.00939733  1
  F  F72  1  0.00000000  0.00000000  0.25000000  1
  F  F73  1  0.00000000  0.00000000  0.75000000  1
  F  F74  1  0.66666667  0.33333333  0.58333333  1
  F  F75  1  0.66666667  0.33333333  0.08333333  1
  F  F76  1  0.33333333  0.66666667  0.91666667  1
  F  F77  1  0.33333333  0.66666667  0.41666667  1
  Li  Li78  1  0.01739065  0.82478310  0.97820691  1
  Li  Li79  1  -0.82478310  -0.80739246  0.97820691  1
  Li  Li80  1  0.80739246  -0.01739065  0.97820691  1
  Li  Li81  1  0.82478310  0.01739065  -0.47820691  1
  Li  Li82  1  -0.80739246  -0.82478310  -0.47820691  1
  Li  Li83  1  -0.01739065  0.80739246  -0.47820691  1
  Li  Li84  1  -0.01739065  -0.82478310  -0.97820691  1
  Li  Li85  1  0.82478310  0.80739246  -0.97820691  1
  Li  Li86  1  -0.80739246  0.01739065  -0.97820691  1
  Li  Li87  1  -0.82478310  -0.01739065  1.47820691  1
  Li  Li88  1  0.80739246  0.82478310  1.47820691  1
  Li  Li89  1  0.01739065  -0.80739246  1.47820691  1
  Li  Li90  1  0.68405731  1.15811644  1.31154024  1
  Li  Li91  1  -0.15811644  -0.47405912  1.31154024  1
  Li  Li92  1  1.47405912  0.31594269  1.31154024  1
  Li  Li93  1  1.49144977  0.35072398  -0.14487357  1
  Li  Li94  1  -0.14072579  -0.49144977  -0.14487357  1
  Li  Li95  1  0.64927602  1.14072579  -0.14487357  1
  Li  Li96  1  0.64927602  -0.49144977  -0.64487357  1
  Li  Li97  1  1.49144977  1.14072579  -0.64487357  1
  Li  Li98  1  -0.14072579  0.35072398  -0.64487357  1
  Li  Li99  1  -0.15811644  0.31594269  1.81154024  1
  Li  Li100  1  1.47405912  1.15811644  1.81154024  1
  Li  Li101  1  0.68405731  -0.47405912  1.81154024  1
  Li  Li102  1  0.35072398  1.49144977  1.64487357  1
  Li  Li103  1  -0.49144977  -0.14072579  1.64487357  1
  Li  Li104  1  1.14072579  0.64927602  1.64487357  1
  Li  Li105  1  1.15811644  0.68405731  0.18845976  1
  Li  Li106  1  -0.47405912  -0.15811644  0.18845976  1
  Li  Li107  1  0.31594269  1.47405912  0.18845976  1
  Li  Li108  1  0.31594269  -0.15811644  -0.31154024  1
  Li  Li109  1  1.15811644  1.47405912  -0.31154024  1
  Li  Li110  1  -0.47405912  0.68405731  -0.31154024  1
  Li  Li111  1  -0.49144977  0.64927602  2.14487357  1
  Li  Li112  1  1.14072579  1.49144977  2.14487357  1
  Li  Li113  1  0.35072398  -0.14072579  2.14487357  1
  Li  Li114  1  0.00000000  0.00000000  0.00000000  1
  Li  Li115  1  0.00000000  0.00000000  0.50000000  1
  Li  Li116  1  0.66666667  0.33333333  0.33333333  1
  Li  Li117  1  0.66666667  0.33333333  0.83333333  1
  Li  Li118  1  0.33333333  0.66666667  0.66666667  1
  Li  Li119  1  0.33333333  0.66666667  0.16666667  1
  Li  Li120  1  0.40210556  0.00000000  0.25000000  1
  Li  Li121  1  0.00000000  0.40210556  0.25000000  1
  Li  Li122  1  0.59789444  0.59789444  0.25000000  1
  Li  Li123  1  0.59789444  0.00000000  0.75000000  1
  Li  Li124  1  0.00000000  0.59789444  0.75000000  1
  Li  Li125  1  0.40210556  0.40210556  0.75000000  1
  Li  Li126  1  0.06877223  0.33333333  0.58333333  1
  Li  Li127  1  0.66666667  0.73543890  0.58333333  1
  Li  Li128  1  0.26456110  0.93122777  0.58333333  1
  Li  Li129  1  0.26456110  0.33333333  0.08333333  1
  Li  Li130  1  0.66666667  0.93122777  0.08333333  1
  Li  Li131  1  0.06877223  0.73543890  0.08333333  1
  Li  Li132  1  0.73543890  0.66666667  0.91666667  1
  Li  Li133  1  0.33333333  0.06877223  0.91666667  1
  Li  Li134  1  0.93122777  0.26456110  0.91666667  1
  Li  Li135  1  0.93122777  0.66666667  0.41666667  1
  Li  Li136  1  0.33333333  0.26456110  0.41666667  1
  Li  Li137  1  0.73543890  0.06877223  0.41666667  1
  Li  Li138  1  0.64017622  0.00000000  0.25000000  1
  Li  Li139  1  0.00000000  0.64017622  0.25000000  1
  Li  Li140  1  0.35982378  0.35982378  0.25000000  1
  Li  Li141  1  0.35982378  0.00000000  0.75000000  1
  Li  Li142  1  0.00000000  0.35982378  0.75000000  1
  Li  Li143  1  0.64017622  0.64017622  0.75000000  1
  Li  Li144  1  0.30684289  0.33333333  0.58333333  1
  Li  Li145  1  0.66666667  0.97350956  0.58333333  1
  Li  Li146  1  0.02649044  0.69315711  0.58333333  1
  Li  Li147  1  0.02649044  0.33333333  0.08333333  1
  Li  Li148  1  0.66666667  0.69315711  0.08333333  1
  Li  Li149  1  0.30684289  0.97350956  0.08333333  1
  Li  Li150  1  0.97350956  0.66666667  0.91666667  1
  Li  Li151  1  0.33333333  0.30684289  0.91666667  1
  Li  Li152  1  0.69315711  0.02649044  0.91666667  1
  Li  Li153  1  0.69315711  0.66666667  0.41666667  1
  Li  Li154  1  0.33333333  0.02649044  0.41666667  1
  Li  Li155  1  0.97350956  0.30684289  0.41666667  1
