# generated using pymatgen
data_LiF
_symmetry_space_group_name_H-M   'P 1'
_cell_length_a   5.45124972
_cell_length_b   9.64222196
_cell_length_c   8.71284846
_cell_angle_alpha   90.00000000
_cell_angle_beta   90.00000000
_cell_angle_gamma   90.00000000
_symmetry_Int_Tables_number   1
_chemical_formula_structural   LiF
_chemical_formula_sum   'Li26 F26'
_cell_volume   457.96613211
_cell_formula_units_Z   26
loop_
 _symmetry_equiv_pos_site_id
 _symmetry_equiv_pos_as_xyz
  1  'x, y, z'
loop_
 _atom_site_type_symbol
 _atom_site_label
 _atom_site_symmetry_multiplicity
 _atom_site_fract_x
 _atom_site_fract_y
 _atom_site_fract_z
 _atom_site_occupancy
  F  F0  1  0.71742656  0.36832201  0.83691551  1
  F  F1  1  -0.71742656  -0.36832201  0.83691551  1
  F  F2  1  -0.21742656  0.86832201  -0.33691551  1
  F  F3  1  1.21742656  0.13167799  -0.33691551  1
  F  F4  1  -0.71742656  -0.36832201  -0.83691551  1
  F  F5  1  0.71742656  0.36832201  -0.83691551  1
  F  F6  1  1.21742656  0.13167799  1.33691551  1
  F  F7  1  -0.21742656  0.86832201  1.33691551  1
  F  F8  1  0.57671701  0.68460414  0.19551058  1
  F  F9  1  0.42328299  0.31539586  0.19551058  1
  F  F10  1  0.92328299  0.18460414  0.30448942  1
  F  F11  1  0.07671701  0.81539586  0.30448942  1
  F  F12  1  0.42328299  0.31539586  0.80448942  1
  F  F13  1  0.57671701  0.68460414  0.80448942  1
  F  F14  1  0.07671701  0.81539586  0.69551058  1
  F  F15  1  0.92328299  0.18460414  0.69551058  1
  F  F16  1  0.00000000  0.50000000  0.00000000  1
  F  F17  1  0.50000000  0.00000000  0.50000000  1
  F  F18  1  0.30669229  0.66946524  0.40185881  1
  F  F19  1  0.69330771  0.33053476  0.40185881  1
  F  F20  1  0.19330771  0.16946524  0.09814119  1
  F  F21  1  0.80669229  0.83053476  0.09814119  1
  F  F22  1  0.69330771  0.33053476  0.59814119  1
  F  F23  1  0.30669229  0.66946524  0.59814119  1
  F  F24  1  0.80669229  0.83053476  0.90185881  1
  F  F25  1  0.19330771  0.16946524  0.90185881  1
  Li  Li26  1  0.15857078  0.24338691  0.00000000  1
  Li  Li27  1  0.84142922  0.75661309  0.00000000  1
  Li  Li28  1  0.34142922  0.74338691  0.50000000  1
  Li  Li29  1  0.65857078  0.25661309  0.50000000  1
  Li  Li30  1  0.87596059  0.56683231  0.15327286  1
  Li  Li31  1  0.12403941  0.43316769  0.15327286  1
  Li  Li32  1  0.62403941  0.06683231  0.34672714  1
  Li  Li33  1  0.37596059  0.93316769  0.34672714  1
  Li  Li34  1  0.12403941  0.43316769  0.84672714  1
  Li  Li35  1  0.87596059  0.56683231  0.84672714  1
  Li  Li36  1  0.37596059  0.93316769  0.65327286  1
  Li  Li37  1  0.62403941  0.06683231  0.65327286  1
  Li  Li38  1  0.00000000  0.50000000  0.50000000  1
  Li  Li39  1  0.50000000  0.00000000  0.00000000  1
  Li  Li40  1  0.00000000  0.50000000  0.33934317  1
  Li  Li41  1  0.50000000  0.00000000  0.16065683  1
  Li  Li42  1  0.00000000  0.50000000  0.66065683  1
  Li  Li43  1  0.50000000  0.00000000  0.83934317  1
  Li  Li44  1  0.04728426  0.67044014  0.22593892  1
  Li  Li45  1  0.95271574  0.32955986  0.22593892  1
  Li  Li46  1  0.45271574  0.17044014  0.27406108  1
  Li  Li47  1  0.54728426  0.82955986  0.27406108  1
  Li  Li48  1  0.95271574  0.32955986  0.77406108  1
  Li  Li49  1  0.04728426  0.67044014  0.77406108  1
  Li  Li50  1  0.54728426  0.82955986  0.72593892  1
  Li  Li51  1  0.45271574  0.17044014  0.72593892  1
