# generated using pymatgen
data_Li2Y2As4P2Se
_symmetry_space_group_name_H-M   'P 1'
_cell_length_a   5.44463182
_cell_length_b   5.72860772
_cell_length_c   6.77470867
_cell_angle_alpha   93.31130571
_cell_angle_beta   96.18953644
_cell_angle_gamma   100.47543524
_symmetry_Int_Tables_number   1
_chemical_formula_structural   Li2Y2As4P2Se
_chemical_formula_sum   'Li2 Y2 As4 P2 Se1'
_cell_volume   205.92334643
_cell_formula_units_Z   1
loop_
 _symmetry_equiv_pos_site_id
 _symmetry_equiv_pos_as_xyz
  1  'x, y, z'
loop_
 _atom_site_type_symbol
 _atom_site_label
 _atom_site_symmetry_multiplicity
 _atom_site_fract_x
 _atom_site_fract_y
 _atom_site_fract_z
 _atom_site_occupancy
  Se  Se0  1  0.12500000  0.00000000  0.25000000  1
  Y  Y1  1  0.00000000  0.00000000  0.00000000  1
  Y  Y2  1  0.37500000  0.00000000  0.25000000  1
  P  P3  1  0.25000000  0.25000000  0.25000000  1
  P  P4  1  0.00000000  0.25000000  0.12500000  1
  As  As5  1  0.35385442  0.70520624  0.40836401  1
  As  As6  1  0.41348885  0.85109301  0.64140825  1
  As  As7  1  0.68698312  0.47596840  0.15603784  1
  As  As8  1  0.50726609  0.59704451  0.62957958  1
  Li  Li9  1  0.63874872  0.78689053  0.46380359  1
  Li  Li10  1  0.52236749  0.43134130  0.01282179  1
