# generated using pymatgen
data_LiCu3P2Se
_symmetry_space_group_name_H-M   'P 1'
_cell_length_a   4.42227151
_cell_length_b   4.59934721
_cell_length_c   6.18322068
_cell_angle_alpha   95.64975118
_cell_angle_beta   99.97609015
_cell_angle_gamma   107.08927091
_symmetry_Int_Tables_number   1
_chemical_formula_structural   LiCu3P2Se
_chemical_formula_sum   'Li1 Cu3 P2 Se1'
_cell_volume   116.89418116
_cell_formula_units_Z   1
loop_
 _symmetry_equiv_pos_site_id
 _symmetry_equiv_pos_as_xyz
  1  'x, y, z'
loop_
 _atom_site_type_symbol
 _atom_site_label
 _atom_site_symmetry_multiplicity
 _atom_site_fract_x
 _atom_site_fract_y
 _atom_site_fract_z
 _atom_site_occupancy
  Se  Se0  1  0.12500000  0.12500000  0.12500000  1
  Cu  Cu1  1  0.50000000  0.50000000  0.50000000  1
  Cu  Cu2  1  0.25000000  0.25000000  0.25000000  1
  Cu  Cu3  1  0.75000000  0.75000000  0.75000000  1
  P  P4  1  0.47094082  0.08863032  0.54621596  1
  P  P5  1  0.66535296  0.49791159  0.76594058  1
  Li  Li6  1  0.04442972  0.15391111  0.48353883  1
