# generated using pymatgen
data_LiCaF3
_symmetry_space_group_name_H-M   'P 1'
_cell_length_a   13.37742431
_cell_length_b   13.37742431
_cell_length_c   8.11877792
_cell_angle_alpha   90.00000000
_cell_angle_beta   90.00000000
_cell_angle_gamma   120.00000000
_symmetry_Int_Tables_number   1
_chemical_formula_structural   LiCaF3
_chemical_formula_sum   'Li18 Ca18 F54'
_cell_volume   1258.24814300
_cell_formula_units_Z   18
loop_
 _symmetry_equiv_pos_site_id
 _symmetry_equiv_pos_as_xyz
  1  'x, y, z'
loop_
 _atom_site_type_symbol
 _atom_site_label
 _atom_site_symmetry_multiplicity
 _atom_site_fract_x
 _atom_site_fract_y
 _atom_site_fract_z
 _atom_site_occupancy
  Ca  Ca0  1  0.57781040  0.83704935  0.86364170  1
  Ca  Ca1  1  -0.83704935  -0.25923895  0.86364170  1
  Ca  Ca2  1  0.25923895  -0.57781040  0.86364170  1
  Ca  Ca3  1  -0.83704935  -0.57781040  -0.86364170  1
  Ca  Ca4  1  0.25923895  0.83704935  -0.86364170  1
  Ca  Ca5  1  0.57781040  -0.25923895  -0.86364170  1
  Ca  Ca6  1  0.74314701  0.25685299  0.00000000  1
  Ca  Ca7  1  0.74314701  0.48629401  0.00000000  1
  Ca  Ca8  1  0.51370599  0.25685299  -0.00000000  1
  Ca  Ca9  1  0.01066060  0.74518495  0.50955916  1
  Ca  Ca10  1  0.25481505  0.26547566  0.50955916  1
  Ca  Ca11  1  0.73452434  0.98933940  0.50955916  1
  Ca  Ca12  1  0.25481505  0.98933940  0.49044084  1
  Ca  Ca13  1  0.73452434  0.74518495  0.49044084  1
  Ca  Ca14  1  0.01066060  0.26547566  0.49044084  1
  Ca  Ca15  1  0.55918780  0.44081220  0.00000000  1
  Ca  Ca16  1  0.55918780  0.11837561  0.00000000  1
  Ca  Ca17  1  0.88162439  0.44081220  0.00000000  1
  F  F18  1  0.66666667  0.33333333  0.50000000  1
  F  F19  1  0.61085170  0.38914830  0.00000000  1
  F  F20  1  0.61085170  0.22170340  -0.00000000  1
  F  F21  1  0.77829660  0.38914830  0.00000000  1
  F  F22  1  0.67278729  0.06839101  0.09557033  1
  F  F23  1  0.93160899  0.60439628  0.09557033  1
  F  F24  1  0.39560372  0.32721271  0.09557033  1
  F  F25  1  0.93160899  0.32721271  0.90442967  1
  F  F26  1  0.39560372  0.06839101  0.90442967  1
  F  F27  1  0.67278729  0.60439628  0.90442967  1
  F  F28  1  0.06838176  0.95296556  0.72623677  1
  F  F29  1  0.04703444  0.11541620  0.72623677  1
  F  F30  1  0.88458380  0.93161824  0.72623677  1
  F  F31  1  0.04703444  0.93161824  0.27376323  1
  F  F32  1  0.88458380  0.95296556  0.27376323  1
  F  F33  1  0.06838176  0.11541620  0.27376323  1
  F  F34  1  0.33333333  0.66666667  0.50000000  1
  F  F35  1  0.29945383  0.35112614  0.71851116  1
  F  F36  1  0.64887386  0.94832769  0.71851116  1
  F  F37  1  0.05167231  0.70054617  0.71851116  1
  F  F38  1  0.64887386  0.70054617  0.28148884  1
  F  F39  1  0.05167231  0.35112614  0.28148884  1
  F  F40  1  0.29945383  0.94832769  0.28148884  1
  F  F41  1  0.66666667  0.33333333  0.00000000  1
  F  F42  1  0.05773686  0.17898310  0.23477033  1
  F  F43  1  0.82101690  0.87875376  0.23477033  1
  F  F44  1  0.12124624  0.94226314  0.23477033  1
  F  F45  1  0.82101690  0.94226314  0.76522967  1
  F  F46  1  0.12124624  0.17898310  0.76522967  1
  F  F47  1  0.05773686  0.87875376  0.76522967  1
  F  F48  1  0.33333333  0.66666667  0.00000000  1
  F  F49  1  0.69838008  0.51043053  0.28491327  1
  F  F50  1  0.48956947  0.18794956  0.28491327  1
  F  F51  1  0.81205044  0.30161992  0.28491327  1
  F  F52  1  0.48956947  0.30161992  0.71508673  1
  F  F53  1  0.81205044  0.51043053  0.71508673  1
  F  F54  1  0.69838008  0.18794956  0.71508673  1
  F  F55  1  0.57382828  0.75599003  0.60079844  1
  F  F56  1  0.24400997  0.81783824  0.60079844  1
  F  F57  1  0.18216176  0.42617172  0.60079844  1
  F  F58  1  0.24400997  0.42617172  0.39920156  1
  F  F59  1  0.18216176  0.75599003  0.39920156  1
  F  F60  1  0.57382828  0.81783824  0.39920156  1
  F  F61  1  0.00231009  0.68663370  0.16155697  1
  F  F62  1  0.31336630  0.31567638  0.16155697  1
  F  F63  1  0.68432362  0.99768991  0.16155697  1
  F  F64  1  0.31336630  0.99768991  0.83844303  1
  F  F65  1  0.68432362  0.68663370  0.83844303  1
  F  F66  1  0.00231009  0.31567638  0.83844303  1
  F  F67  1  0.54018843  0.45981157  0.50000000  1
  F  F68  1  0.54018843  0.08037687  0.50000000  1
  F  F69  1  0.91962313  0.45981157  0.50000000  1
  F  F70  1  0.33333333  0.66666667  0.71578528  1
  F  F71  1  0.33333333  0.66666667  0.28421472  1
  Li  Li72  1  0.86238093  0.75806020  0.90737225  1
  Li  Li73  1  0.24193980  0.10432072  0.90737225  1
  Li  Li74  1  0.89567928  0.13761907  0.90737225  1
  Li  Li75  1  0.24193980  0.13761907  0.09262775  1
  Li  Li76  1  0.89567928  0.75806020  0.09262775  1
  Li  Li77  1  0.86238093  0.10432072  0.09262775  1
  Li  Li78  1  0.38749490  0.28397292  0.43511935  1
  Li  Li79  1  0.71602708  0.10352199  0.43511935  1
  Li  Li80  1  0.89647801  0.61250510  0.43511935  1
  Li  Li81  1  0.71602708  0.61250510  0.56488065  1
  Li  Li82  1  0.89647801  0.28397292  0.56488065  1
  Li  Li83  1  0.38749490  0.10352199  0.56488065  1
  Li  Li84  1  0.94636722  0.21313373  0.24390965  1
  Li  Li85  1  0.78686627  0.73323349  0.24390965  1
  Li  Li86  1  0.26676651  0.05363278  0.24390965  1
  Li  Li87  1  0.78686627  0.05363278  0.75609035  1
  Li  Li88  1  0.26676651  0.21313373  0.75609035  1
  Li  Li89  1  0.94636722  0.73323349  0.75609035  1
