# generated using pymatgen
data_LiF
_symmetry_space_group_name_H-M   'P 1'
_cell_length_a   16.07798389
_cell_length_b   16.07798389
_cell_length_c   13.84336405
_cell_angle_alpha   90.00000000
_cell_angle_beta   90.00000000
_cell_angle_gamma   120.00000000
_symmetry_Int_Tables_number   1
_chemical_formula_structural   LiF
_chemical_formula_sum   'Li108 F108'
_cell_volume   3099.09900146
_cell_formula_units_Z   108
loop_
 _symmetry_equiv_pos_site_id
 _symmetry_equiv_pos_as_xyz
  1  'x, y, z'
loop_
 _atom_site_type_symbol
 _atom_site_label
 _atom_site_symmetry_multiplicity
 _atom_site_fract_x
 _atom_site_fract_y
 _atom_site_fract_z
 _atom_site_occupancy
  F  F0  1  0.23717179  0.83412654  0.47467671  1
  F  F1  1  0.16587346  0.40304525  0.47467671  1
  F  F2  1  0.59695475  0.76282821  0.47467671  1
  F  F3  1  0.83412654  0.23717179  0.02532329  1
  F  F4  1  0.40304525  0.16587346  0.02532329  1
  F  F5  1  0.76282821  0.59695475  0.02532329  1
  F  F6  1  0.76282821  0.16587346  0.52532329  1
  F  F7  1  0.83412654  0.59695475  0.52532329  1
  F  F8  1  0.40304525  0.23717179  0.52532329  1
  F  F9  1  0.16587346  0.76282821  0.97467671  1
  F  F10  1  0.59695475  0.83412654  0.97467671  1
  F  F11  1  0.23717179  0.40304525  0.97467671  1
  F  F12  1  0.90383846  0.16745987  0.80801004  1
  F  F13  1  0.83254013  0.73637859  0.80801004  1
  F  F14  1  0.26362141  0.09616154  0.80801004  1
  F  F15  1  0.50079321  0.57050513  0.35865663  1
  F  F16  1  0.06971192  0.49920679  0.35865663  1
  F  F17  1  0.42949487  0.93028808  0.35865663  1
  F  F18  1  0.42949487  0.49920679  0.85865663  1
  F  F19  1  0.50079321  0.93028808  0.85865663  1
  F  F20  1  0.06971192  0.57050513  0.85865663  1
  F  F21  1  0.83254013  0.09616154  0.30801004  1
  F  F22  1  0.26362141  0.16745987  0.30801004  1
  F  F23  1  0.90383846  0.73637859  0.30801004  1
  F  F24  1  0.57050513  0.50079321  0.14134337  1
  F  F25  1  0.49920679  0.06971192  0.14134337  1
  F  F26  1  0.93028808  0.42949487  0.14134337  1
  F  F27  1  0.16745987  0.90383846  0.69198996  1
  F  F28  1  0.73637859  0.83254013  0.69198996  1
  F  F29  1  0.09616154  0.26362141  0.69198996  1
  F  F30  1  0.09616154  0.83254013  0.19198996  1
  F  F31  1  0.16745987  0.26362141  0.19198996  1
  F  F32  1  0.73637859  0.90383846  0.19198996  1
  F  F33  1  0.49920679  0.42949487  0.64134337  1
  F  F34  1  0.93028808  0.50079321  0.64134337  1
  F  F35  1  0.57050513  0.06971192  0.64134337  1
  F  F36  1  0.29906216  0.81675651  0.31580205  1
  F  F37  1  0.18324349  0.48230565  0.31580205  1
  F  F38  1  0.51769435  0.70093784  0.31580205  1
  F  F39  1  0.81675651  0.29906216  0.18419795  1
  F  F40  1  0.48230565  0.18324349  0.18419795  1
  F  F41  1  0.70093784  0.51769435  0.18419795  1
  F  F42  1  0.70093784  0.18324349  0.68419795  1
  F  F43  1  0.81675651  0.51769435  0.68419795  1
  F  F44  1  0.48230565  0.29906216  0.68419795  1
  F  F45  1  0.18324349  0.70093784  0.81580205  1
  F  F46  1  0.51769435  0.81675651  0.81580205  1
  F  F47  1  0.29906216  0.48230565  0.81580205  1
  F  F48  1  0.96572882  0.15008984  0.64913539  1
  F  F49  1  0.84991016  0.81563898  0.64913539  1
  F  F50  1  0.18436102  0.03427118  0.64913539  1
  F  F51  1  0.48342317  0.63239549  0.51753128  1
  F  F52  1  0.14897232  0.51657683  0.51753128  1
  F  F53  1  0.36760451  0.85102768  0.51753128  1
  F  F54  1  0.36760451  0.51657683  0.01753128  1
  F  F55  1  0.48342317  0.85102768  0.01753128  1
  F  F56  1  0.14897232  0.63239549  0.01753128  1
  F  F57  1  0.84991016  0.03427118  0.14913539  1
  F  F58  1  0.18436102  0.15008984  0.14913539  1
  F  F59  1  0.96572882  0.81563898  0.14913539  1
  F  F60  1  0.63239549  0.48342317  0.98246872  1
  F  F61  1  0.51657683  0.14897232  0.98246872  1
  F  F62  1  0.85102768  0.36760451  0.98246872  1
  F  F63  1  0.15008984  0.96572882  0.85086461  1
  F  F64  1  0.81563898  0.84991016  0.85086461  1
  F  F65  1  0.03427118  0.18436102  0.85086461  1
  F  F66  1  0.03427118  0.84991016  0.35086461  1
  F  F67  1  0.15008984  0.18436102  0.35086461  1
  F  F68  1  0.81563898  0.96572882  0.35086461  1
  F  F69  1  0.51657683  0.36760451  0.48246872  1
  F  F70  1  0.85102768  0.48342317  0.48246872  1
  F  F71  1  0.63239549  0.14897232  0.48246872  1
  F  F72  1  0.62698210  0.62566430  0.52759551  1
  F  F73  1  0.37433570  0.00131780  0.52759551  1
  F  F74  1  0.99868220  0.37301790  0.52759551  1
  F  F75  1  0.62566430  0.62698210  0.97240449  1
  F  F76  1  0.00131780  0.37433570  0.97240449  1
  F  F77  1  0.37301790  0.99868220  0.97240449  1
  F  F78  1  0.37301790  0.37433570  0.47240449  1
  F  F79  1  0.62566430  0.99868220  0.47240449  1
  F  F80  1  0.00131780  0.62698210  0.47240449  1
  F  F81  1  0.37433570  0.37301790  0.02759551  1
  F  F82  1  0.99868220  0.62566430  0.02759551  1
  F  F83  1  0.62698210  0.00131780  0.02759551  1
  F  F84  1  0.29364877  0.95899764  0.86092884  1
  F  F85  1  0.04100236  0.33465114  0.86092884  1
  F  F86  1  0.66534886  0.70635123  0.86092884  1
  F  F87  1  0.29233097  0.96031544  0.30573782  1
  F  F88  1  0.66798447  0.70766903  0.30573782  1
  F  F89  1  0.03968456  0.33201553  0.30573782  1
  F  F90  1  0.03968456  0.70766903  0.80573782  1
  F  F91  1  0.29233097  0.33201553  0.80573782  1
  F  F92  1  0.66798447  0.96031544  0.80573782  1
  F  F93  1  0.04100236  0.70635123  0.36092884  1
  F  F94  1  0.66534886  0.95899764  0.36092884  1
  F  F95  1  0.29364877  0.33465114  0.36092884  1
  F  F96  1  0.96031544  0.29233097  0.19426218  1
  F  F97  1  0.70766903  0.66798447  0.19426218  1
  F  F98  1  0.33201553  0.03968456  0.19426218  1
  F  F99  1  0.95899764  0.29364877  0.63907116  1
  F  F100  1  0.33465114  0.04100236  0.63907116  1
  F  F101  1  0.70635123  0.66534886  0.63907116  1
  F  F102  1  0.70635123  0.04100236  0.13907116  1
  F  F103  1  0.95899764  0.66534886  0.13907116  1
  F  F104  1  0.33465114  0.29364877  0.13907116  1
  F  F105  1  0.70766903  0.03968456  0.69426218  1
  F  F106  1  0.33201553  0.29233097  0.69426218  1
  F  F107  1  0.96031544  0.66798447  0.69426218  1
  Li  Li108  1  0.00000000  0.00000000  0.00000000  1
  Li  Li109  1  0.00000000  0.00000000  0.50000000  1
  Li  Li110  1  0.66666667  0.33333333  0.33333333  1
  Li  Li111  1  0.66666667  0.33333333  0.83333333  1
  Li  Li112  1  0.33333333  0.66666667  0.66666667  1
  Li  Li113  1  0.33333333  0.66666667  0.16666667  1
  Li  Li114  1  0.82582122  0.53797526  0.83055683  1
  Li  Li115  1  -0.53797526  0.28784596  0.83055683  1
  Li  Li116  1  -0.28784596  -0.82582122  0.83055683  1
  Li  Li117  1  0.53797526  0.82582122  -0.33055683  1
  Li  Li118  1  0.28784596  -0.53797526  -0.33055683  1
  Li  Li119  1  -0.82582122  -0.28784596  -0.33055683  1
  Li  Li120  1  -0.82582122  -0.53797526  -0.83055683  1
  Li  Li121  1  0.53797526  -0.28784596  -0.83055683  1
  Li  Li122  1  0.28784596  0.82582122  -0.83055683  1
  Li  Li123  1  -0.53797526  -0.82582122  1.33055683  1
  Li  Li124  1  -0.28784596  0.53797526  1.33055683  1
  Li  Li125  1  0.82582122  0.28784596  1.33055683  1
  Li  Li126  1  1.49248788  0.87130859  1.16389016  1
  Li  Li127  1  0.12869141  0.62117929  1.16389016  1
  Li  Li128  1  0.37882071  -0.49248788  1.16389016  1
  Li  Li129  1  1.20464193  1.15915455  0.00277650  1
  Li  Li130  1  0.95451262  -0.20464193  0.00277650  1
  Li  Li131  1  -0.15915455  0.04548738  0.00277650  1
  Li  Li132  1  -0.15915455  -0.20464193  -0.49722350  1
  Li  Li133  1  1.20464193  0.04548738  -0.49722350  1
  Li  Li134  1  0.95451262  1.15915455  -0.49722350  1
  Li  Li135  1  0.12869141  -0.49248788  1.66389016  1
  Li  Li136  1  0.37882071  0.87130859  1.66389016  1
  Li  Li137  1  1.49248788  0.62117929  1.66389016  1
  Li  Li138  1  1.15915455  1.20464193  1.49722350  1
  Li  Li139  1  -0.20464193  0.95451262  1.49722350  1
  Li  Li140  1  0.04548738  -0.15915455  1.49722350  1
  Li  Li141  1  0.87130859  1.49248788  0.33610984  1
  Li  Li142  1  0.62117929  0.12869141  0.33610984  1
  Li  Li143  1  -0.49248788  0.37882071  0.33610984  1
  Li  Li144  1  -0.49248788  0.12869141  -0.16389016  1
  Li  Li145  1  0.87130859  0.37882071  -0.16389016  1
  Li  Li146  1  0.62117929  1.49248788  -0.16389016  1
  Li  Li147  1  -0.20464193  -0.15915455  1.99722350  1
  Li  Li148  1  0.04548738  1.20464193  1.99722350  1
  Li  Li149  1  1.15915455  0.95451262  1.99722350  1
  Li  Li150  1  0.53837131  0.94340315  0.97712604  1
  Li  Li151  1  0.05659685  0.59496817  0.97712604  1
  Li  Li152  1  0.40503183  0.46162869  0.97712604  1
  Li  Li153  1  0.94340315  0.53837131  0.52287396  1
  Li  Li154  1  0.59496817  0.05659685  0.52287396  1
  Li  Li155  1  0.46162869  0.40503183  0.52287396  1
  Li  Li156  1  0.46162869  0.05659685  0.02287396  1
  Li  Li157  1  0.94340315  0.40503183  0.02287396  1
  Li  Li158  1  0.59496817  0.53837131  0.02287396  1
  Li  Li159  1  0.05659685  0.46162869  0.47712604  1
  Li  Li160  1  0.40503183  0.94340315  0.47712604  1
  Li  Li161  1  0.53837131  0.59496817  0.47712604  1
  Li  Li162  1  0.20503798  0.27673648  0.31045937  1
  Li  Li163  1  0.72326352  0.92830150  0.31045937  1
  Li  Li164  1  0.07169850  0.79496202  0.31045937  1
  Li  Li165  1  0.61006981  0.87170465  0.85620730  1
  Li  Li166  1  0.26163483  0.38993019  0.85620730  1
  Li  Li167  1  0.12829535  0.73836517  0.85620730  1
  Li  Li168  1  0.12829535  0.38993019  0.35620730  1
  Li  Li169  1  0.61006981  0.73836517  0.35620730  1
  Li  Li170  1  0.26163483  0.87170465  0.35620730  1
  Li  Li171  1  0.72326352  0.79496202  0.81045937  1
  Li  Li172  1  0.07169850  0.27673648  0.81045937  1
  Li  Li173  1  0.20503798  0.92830150  0.81045937  1
  Li  Li174  1  0.87170465  0.61006981  0.64379270  1
  Li  Li175  1  0.38993019  0.26163483  0.64379270  1
  Li  Li176  1  0.73836517  0.12829535  0.64379270  1
  Li  Li177  1  0.27673648  0.20503798  0.18954063  1
  Li  Li178  1  0.92830150  0.72326352  0.18954063  1
  Li  Li179  1  0.79496202  0.07169850  0.18954063  1
  Li  Li180  1  0.79496202  0.72326352  0.68954063  1
  Li  Li181  1  0.27673648  0.07169850  0.68954063  1
  Li  Li182  1  0.92830150  0.20503798  0.68954063  1
  Li  Li183  1  0.38993019  0.12829535  0.14379270  1
  Li  Li184  1  0.73836517  0.61006981  0.14379270  1
  Li  Li185  1  0.87170465  0.26163483  0.14379270  1
  Li  Li186  1  0.50000000  0.00000000  0.00000000  1
  Li  Li187  1  0.00000000  0.50000000  0.00000000  1
  Li  Li188  1  0.50000000  0.50000000  0.00000000  1
  Li  Li189  1  0.00000000  0.50000000  0.50000000  1
  Li  Li190  1  0.50000000  0.00000000  0.50000000  1
  Li  Li191  1  0.50000000  0.50000000  0.50000000  1
  Li  Li192  1  0.16666667  0.33333333  0.33333333  1
  Li  Li193  1  0.66666667  0.83333333  0.33333333  1
  Li  Li194  1  0.16666667  0.83333333  0.33333333  1
  Li  Li195  1  0.66666667  0.83333333  0.83333333  1
  Li  Li196  1  0.16666667  0.33333333  0.83333333  1
  Li  Li197  1  0.16666667  0.83333333  0.83333333  1
  Li  Li198  1  0.83333333  0.66666667  0.66666667  1
  Li  Li199  1  0.33333333  0.16666667  0.66666667  1
  Li  Li200  1  0.83333333  0.16666667  0.66666667  1
  Li  Li201  1  0.33333333  0.16666667  0.16666667  1
  Li  Li202  1  0.83333333  0.66666667  0.16666667  1
  Li  Li203  1  0.83333333  0.16666667  0.16666667  1
  Li  Li204  1  0.00000000  0.00000000  0.34111500  1
  Li  Li205  1  0.00000000  0.00000000  0.15888500  1
  Li  Li206  1  0.00000000  0.00000000  0.65888500  1
  Li  Li207  1  0.00000000  0.00000000  0.84111500  1
  Li  Li208  1  0.66666667  0.33333333  0.67444833  1
  Li  Li209  1  0.66666667  0.33333333  0.49221834  1
  Li  Li210  1  0.66666667  0.33333333  0.99221834  1
  Li  Li211  1  0.66666667  0.33333333  0.17444833  1
  Li  Li212  1  0.33333333  0.66666667  0.00778166  1
  Li  Li213  1  0.33333333  0.66666667  0.82555167  1
  Li  Li214  1  0.33333333  0.66666667  0.32555167  1
  Li  Li215  1  0.33333333  0.66666667  0.50778166  1
