# generated using pymatgen
data_LiF
_symmetry_space_group_name_H-M   'P 1'
_cell_length_a   7.58082626
_cell_length_b   7.58082626
_cell_length_c   9.71997781
_cell_angle_alpha   90.00000000
_cell_angle_beta   90.00000000
_cell_angle_gamma   120.00000000
_symmetry_Int_Tables_number   1
_chemical_formula_structural   LiF
_chemical_formula_sum   'Li24 F24'
_cell_volume   483.75892683
_cell_formula_units_Z   24
loop_
 _symmetry_equiv_pos_site_id
 _symmetry_equiv_pos_as_xyz
  1  'x, y, z'
loop_
 _atom_site_type_symbol
 _atom_site_label
 _atom_site_symmetry_multiplicity
 _atom_site_fract_x
 _atom_site_fract_y
 _atom_site_fract_z
 _atom_site_occupancy
  F  F0  1  0.41736477  0.26444971  0.60142212  1
  F  F1  1  0.73555029  0.15291506  0.60142212  1
  F  F2  1  0.84708494  0.58263523  0.60142212  1
  F  F3  1  0.73555029  0.58263523  0.39857788  1
  F  F4  1  0.84708494  0.26444971  0.39857788  1
  F  F5  1  0.41736477  0.15291506  0.39857788  1
  F  F6  1  0.33333333  0.66666667  0.06113846  1
  F  F7  1  0.33333333  0.66666667  0.93886154  1
  F  F8  1  0.66666667  0.33333333  -0.00000000  1
  F  F9  1  0.64214128  0.00219869  0.84578708  1
  F  F10  1  0.99780131  0.63994259  0.84578708  1
  F  F11  1  0.36005741  0.35785872  0.84578708  1
  F  F12  1  0.99780131  0.35785872  0.15421292  1
  F  F13  1  0.36005741  0.00219869  0.15421292  1
  F  F14  1  0.64214128  0.63994259  0.15421292  1
  F  F15  1  0.66759489  0.61344205  0.68015421  1
  F  F16  1  0.38655795  0.05415284  0.68015421  1
  F  F17  1  0.94584716  0.33240511  0.68015421  1
  F  F18  1  0.38655795  0.33240511  0.31984579  1
  F  F19  1  0.94584716  0.61344205  0.31984579  1
  F  F20  1  0.66759489  0.05415284  0.31984579  1
  F  F21  1  0.26273167  0.73726833  0.00000000  1
  F  F22  1  0.26273167  0.52546335  0.00000000  1
  F  F23  1  0.47453665  0.73726833  0.00000000  1
  Li  Li24  1  0.33333333  0.66666667  0.50000000  1
  Li  Li25  1  0.53160077  0.46839923  0.50000000  1
  Li  Li26  1  0.53160077  0.06320155  0.50000000  1
  Li  Li27  1  0.93679845  0.46839923  0.50000000  1
  Li  Li28  1  0.03506239  0.76320966  0.74491171  1
  Li  Li29  1  -0.76320966  -0.72814727  0.74491171  1
  Li  Li30  1  0.72814727  -0.03506239  0.74491171  1
  Li  Li31  1  -0.76320966  -0.03506239  -0.74491171  1
  Li  Li32  1  0.72814727  0.76320966  -0.74491171  1
  Li  Li33  1  0.03506239  -0.72814727  -0.74491171  1
  Li  Li34  1  0.43674421  0.94565076  0.81902036  1
  Li  Li35  1  0.05434924  0.49109345  0.81902036  1
  Li  Li36  1  0.50890655  0.56325579  0.81902036  1
  Li  Li37  1  0.05434924  0.56325579  0.18097964  1
  Li  Li38  1  0.50890655  0.94565076  0.18097964  1
  Li  Li39  1  0.43674421  0.49109345  0.18097964  1
  Li  Li40  1  0.17049565  0.49211841  0.25937695  1
  Li  Li41  1  0.50788159  0.67837724  0.25937695  1
  Li  Li42  1  0.32162276  0.82950435  0.25937695  1
  Li  Li43  1  0.50788159  0.82950435  0.74062305  1
  Li  Li44  1  0.32162276  0.49211841  0.74062305  1
  Li  Li45  1  0.17049565  0.67837724  0.74062305  1
  Li  Li46  1  0.66666667  0.33333333  0.83295341  1
  Li  Li47  1  0.66666667  0.33333333  0.16704659  1
