# generated using pymatgen
data_LiF
_symmetry_space_group_name_H-M   'P 1'
_cell_length_a   4.43819565
_cell_length_b   16.87143255
_cell_length_c   5.40299317
_cell_angle_alpha   90.00000000
_cell_angle_beta   90.00000000
_cell_angle_gamma   90.00000000
_symmetry_Int_Tables_number   1
_chemical_formula_structural   LiF
_chemical_formula_sum   'Li16 F16'
_cell_volume   404.56920464
_cell_formula_units_Z   16
loop_
 _symmetry_equiv_pos_site_id
 _symmetry_equiv_pos_as_xyz
  1  'x, y, z'
loop_
 _atom_site_type_symbol
 _atom_site_label
 _atom_site_symmetry_multiplicity
 _atom_site_fract_x
 _atom_site_fract_y
 _atom_site_fract_z
 _atom_site_occupancy
  F  F0  1  0.93257657  0.95775138  0.23127170  1
  F  F1  1  -0.93257657  -0.95775138  0.23127170  1
  F  F2  1  -0.43257657  1.45775138  0.26872830  1
  F  F3  1  1.43257657  -0.45775138  0.26872830  1
  F  F4  1  -0.93257657  -0.95775138  -0.23127170  1
  F  F5  1  0.93257657  0.95775138  -0.23127170  1
  F  F6  1  1.43257657  -0.45775138  0.73127170  1
  F  F7  1  -0.43257657  1.45775138  0.73127170  1
  F  F8  1  0.37864530  0.12280305  0.67243851  1
  F  F9  1  0.62135470  0.87719695  0.67243851  1
  F  F10  1  0.12135470  0.62280305  0.82756149  1
  F  F11  1  0.87864530  0.37719695  0.82756149  1
  F  F12  1  0.62135470  0.87719695  0.32756149  1
  F  F13  1  0.37864530  0.12280305  0.32756149  1
  F  F14  1  0.87864530  0.37719695  0.17243851  1
  F  F15  1  0.12135470  0.62280305  0.17243851  1
  Li  Li16  1  0.52077516  0.66006401  0.84733112  1
  Li  Li17  1  0.47922484  0.33993599  0.84733112  1
  Li  Li18  1  0.97922484  0.16006401  0.65266888  1
  Li  Li19  1  0.02077516  0.83993599  0.65266888  1
  Li  Li20  1  0.47922484  0.33993599  0.15266888  1
  Li  Li21  1  0.52077516  0.66006401  0.15266888  1
  Li  Li22  1  0.02077516  0.83993599  0.34733112  1
  Li  Li23  1  0.97922484  0.16006401  0.34733112  1
  Li  Li24  1  0.00000000  0.00000000  0.00000000  1
  Li  Li25  1  0.50000000  0.50000000  0.50000000  1
  Li  Li26  1  0.00000000  0.50000000  0.50000000  1
  Li  Li27  1  0.50000000  0.00000000  0.00000000  1
  Li  Li28  1  0.00000000  0.50000000  0.00000000  1
  Li  Li29  1  0.50000000  0.00000000  0.50000000  1
  Li  Li30  1  0.00000000  0.00000000  0.50000000  1
  Li  Li31  1  0.50000000  0.50000000  0.00000000  1
