# generated using pymatgen
data_LiF
_symmetry_space_group_name_H-M   'P 1'
_cell_length_a   10.49366715
_cell_length_b   10.49366715
_cell_length_c   5.15069831
_cell_angle_alpha   90.00000000
_cell_angle_beta   90.00000000
_cell_angle_gamma   120.00000000
_symmetry_Int_Tables_number   1
_chemical_formula_structural   LiF
_chemical_formula_sum   'Li26 F26'
_cell_volume   491.19203245
_cell_formula_units_Z   26
loop_
 _symmetry_equiv_pos_site_id
 _symmetry_equiv_pos_as_xyz
  1  'x, y, z'
loop_
 _atom_site_type_symbol
 _atom_site_label
 _atom_site_symmetry_multiplicity
 _atom_site_fract_x
 _atom_site_fract_y
 _atom_site_fract_z
 _atom_site_occupancy
  F  F0  1  0.00000000  0.00000000  0.71131452  1
  F  F1  1  0.00000000  0.00000000  0.28868548  1
  F  F2  1  0.90643892  0.01170571  0.54013015  1
  F  F3  1  0.98829429  0.89473321  0.54013015  1
  F  F4  1  0.10526679  0.09356108  0.54013015  1
  F  F5  1  0.98829429  0.09356108  0.45986985  1
  F  F6  1  0.10526679  0.01170571  0.45986985  1
  F  F7  1  0.90643892  0.89473321  0.45986985  1
  F  F8  1  0.22207444  0.34933636  0.82086198  1
  F  F9  1  0.65066364  0.87273808  0.82086198  1
  F  F10  1  0.12726192  0.77792556  0.82086198  1
  F  F11  1  0.65066364  0.77792556  0.17913802  1
  F  F12  1  0.12726192  0.34933636  0.17913802  1
  F  F13  1  0.22207444  0.87273808  0.17913802  1
  F  F14  1  0.61750704  0.38249296  -0.00000000  1
  F  F15  1  0.61750704  0.23501407  -0.00000000  1
  F  F16  1  0.76498593  0.38249296  -0.00000000  1
  F  F17  1  0.70328654  0.00759031  0.82382523  1
  F  F18  1  0.99240969  0.69569623  0.82382523  1
  F  F19  1  0.30430377  0.29671346  0.82382523  1
  F  F20  1  0.99240969  0.29671346  0.17617477  1
  F  F21  1  0.30430377  0.00759031  0.17617477  1
  F  F22  1  0.70328654  0.69569623  0.17617477  1
  F  F23  1  0.57258006  0.42741994  0.50000000  1
  F  F24  1  0.57258006  0.14516012  0.50000000  1
  F  F25  1  0.85483988  0.42741994  0.50000000  1
  Li  Li26  1  0.85788895  0.37971499  0.22846033  1
  Li  Li27  1  -0.37971499  0.47817395  0.22846033  1
  Li  Li28  1  -0.47817395  -0.85788895  0.22846033  1
  Li  Li29  1  -0.37971499  -0.85788895  -0.22846033  1
  Li  Li30  1  -0.47817395  0.37971499  -0.22846033  1
  Li  Li31  1  0.85788895  0.47817395  -0.22846033  1
  Li  Li32  1  0.00000000  0.00000000  0.50000000  1
  Li  Li33  1  0.80872080  0.67858492  0.85459669  1
  Li  Li34  1  0.32141508  0.13013587  0.85459669  1
  Li  Li35  1  0.86986413  0.19127920  0.85459669  1
  Li  Li36  1  0.32141508  0.19127920  0.14540331  1
  Li  Li37  1  0.86986413  0.67858492  0.14540331  1
  Li  Li38  1  0.80872080  0.13013587  0.14540331  1
  Li  Li39  1  0.33333333  0.66666667  0.50000000  1
  Li  Li40  1  0.33612593  0.76246062  0.78575851  1
  Li  Li41  1  0.23753938  0.57366531  0.78575851  1
  Li  Li42  1  0.42633469  0.66387407  0.78575851  1
  Li  Li43  1  0.23753938  0.66387407  0.21424149  1
  Li  Li44  1  0.42633469  0.76246062  0.21424149  1
  Li  Li45  1  0.33612593  0.57366531  0.21424149  1
  Li  Li46  1  0.46791323  0.53208677  0.00000000  1
  Li  Li47  1  0.46791323  0.93582647  -0.00000000  1
  Li  Li48  1  0.06417353  0.53208677  -0.00000000  1
  Li  Li49  1  0.50095722  0.49904278  0.50000000  1
  Li  Li50  1  0.50095722  0.00191444  0.50000000  1
  Li  Li51  1  0.99808556  0.49904278  0.50000000  1
