# generated using pymatgen
data_LiF
_symmetry_space_group_name_H-M   'P 1'
_cell_length_a   8.00030031
_cell_length_b   6.23795235
_cell_length_c   7.71239287
_cell_angle_alpha   90.00000000
_cell_angle_beta   90.00000000
_cell_angle_gamma   90.00000000
_symmetry_Int_Tables_number   1
_chemical_formula_structural   LiF
_chemical_formula_sum   'Li24 F24'
_cell_volume   384.89076177
_cell_formula_units_Z   24
loop_
 _symmetry_equiv_pos_site_id
 _symmetry_equiv_pos_as_xyz
  1  'x, y, z'
loop_
 _atom_site_type_symbol
 _atom_site_label
 _atom_site_symmetry_multiplicity
 _atom_site_fract_x
 _atom_site_fract_y
 _atom_site_fract_z
 _atom_site_occupancy
  F  F0  1  0.00000000  0.00000000  0.50000000  1
  F  F1  1  0.50000000  0.00000000  0.00000000  1
  F  F2  1  0.00000000  0.50000000  0.50000000  1
  F  F3  1  0.50000000  0.50000000  0.00000000  1
  F  F4  1  0.98357961  0.25000000  0.27228459  1
  F  F5  1  0.51642039  0.75000000  0.77228459  1
  F  F6  1  0.01642039  0.75000000  0.72771541  1
  F  F7  1  0.48357961  0.25000000  0.22771541  1
  F  F8  1  0.60068719  0.53867225  0.89509051  1
  F  F9  1  0.89931281  0.46132775  0.39509051  1
  F  F10  1  0.39931281  0.03867225  0.10490949  1
  F  F11  1  0.10068719  0.96132775  0.60490949  1
  F  F12  1  0.39931281  0.46132775  0.10490949  1
  F  F13  1  0.10068719  0.53867225  0.60490949  1
  F  F14  1  0.60068719  0.96132775  0.89509051  1
  F  F15  1  0.89931281  0.03867225  0.39509051  1
  F  F16  1  0.99308527  0.36091639  0.24235225  1
  F  F17  1  0.50691473  0.63908361  0.74235225  1
  F  F18  1  0.00691473  0.86091639  0.75764775  1
  F  F19  1  0.49308527  0.13908361  0.25764775  1
  F  F20  1  0.00691473  0.63908361  0.75764775  1
  F  F21  1  0.49308527  0.36091639  0.25764775  1
  F  F22  1  0.99308527  0.13908361  0.24235225  1
  F  F23  1  0.50691473  0.86091639  0.74235225  1
  Li  Li24  1  0.21620529  0.25000000  0.57916205  1
  Li  Li25  1  0.28379471  0.75000000  0.07916205  1
  Li  Li26  1  0.78379471  0.75000000  0.42083795  1
  Li  Li27  1  0.71620529  0.25000000  0.92083795  1
  Li  Li28  1  0.36571732  0.25000000  0.32142559  1
  Li  Li29  1  0.13428268  0.75000000  0.82142559  1
  Li  Li30  1  0.63428268  0.75000000  0.67857441  1
  Li  Li31  1  0.86571732  0.25000000  0.17857441  1
  Li  Li32  1  0.68517102  0.25000000  0.26822948  1
  Li  Li33  1  0.81482898  0.75000000  0.76822948  1
  Li  Li34  1  0.31482898  0.75000000  0.73177052  1
  Li  Li35  1  0.18517102  0.25000000  0.23177052  1
  Li  Li36  1  0.23168668  0.61841308  0.91438760  1
  Li  Li37  1  0.26831332  -0.61841308  1.41438760  1
  Li  Li38  1  -0.23168668  1.11841308  -0.91438760  1
  Li  Li39  1  0.73168668  -0.11841308  -0.41438760  1
  Li  Li40  1  -0.23168668  -0.61841308  -0.91438760  1
  Li  Li41  1  0.73168668  0.61841308  -0.41438760  1
  Li  Li42  1  0.23168668  -0.11841308  0.91438760  1
  Li  Li43  1  0.26831332  1.11841308  1.41438760  1
  Li  Li44  1  0.77914388  0.25000000  0.46837103  1
  Li  Li45  1  0.72085612  0.75000000  0.96837103  1
  Li  Li46  1  0.22085612  0.75000000  0.53162897  1
  Li  Li47  1  0.27914388  0.25000000  0.03162897  1
