# generated using pymatgen
data_LiF
_symmetry_space_group_name_H-M   'P 1'
_cell_length_a   6.15017867
_cell_length_b   12.86385445
_cell_length_c   9.16001376
_cell_angle_alpha   90.00000000
_cell_angle_beta   90.00000000
_cell_angle_gamma   90.00000000
_symmetry_Int_Tables_number   1
_chemical_formula_structural   LiF
_chemical_formula_sum   'Li24 F24'
_cell_volume   724.69451821
_cell_formula_units_Z   24
loop_
 _symmetry_equiv_pos_site_id
 _symmetry_equiv_pos_as_xyz
  1  'x, y, z'
loop_
 _atom_site_type_symbol
 _atom_site_label
 _atom_site_symmetry_multiplicity
 _atom_site_fract_x
 _atom_site_fract_y
 _atom_site_fract_z
 _atom_site_occupancy
  F  F0  1  0.00000000  0.00000000  0.50000000  1
  F  F1  1  0.50000000  0.00000000  0.00000000  1
  F  F2  1  0.00000000  0.50000000  0.50000000  1
  F  F3  1  0.50000000  0.50000000  0.00000000  1
  F  F4  1  0.50400675  0.93829522  0.43289931  1
  F  F5  1  0.99599325  0.06170478  0.93289931  1
  F  F6  1  0.49599325  0.43829522  0.56710069  1
  F  F7  1  0.00400675  0.56170478  0.06710069  1
  F  F8  1  0.49599325  0.06170478  0.56710069  1
  F  F9  1  0.00400675  0.93829522  0.06710069  1
  F  F10  1  0.50400675  0.56170478  0.43289931  1
  F  F11  1  0.99599325  0.43829522  0.93289931  1
  F  F12  1  0.61464051  0.25000000  0.15617177  1
  F  F13  1  0.88535949  0.75000000  0.65617177  1
  F  F14  1  0.38535949  0.75000000  0.84382823  1
  F  F15  1  0.11464051  0.25000000  0.34382823  1
  F  F16  1  0.25844980  0.81542230  0.76431403  1
  F  F17  1  0.24155020  0.18457770  0.26431403  1
  F  F18  1  0.74155020  0.31542230  0.23568597  1
  F  F19  1  0.75844980  0.68457770  0.73568597  1
  F  F20  1  0.74155020  0.18457770  0.23568597  1
  F  F21  1  0.75844980  0.81542230  0.73568597  1
  F  F22  1  0.25844980  0.68457770  0.76431403  1
  F  F23  1  0.24155020  0.31542230  0.26431403  1
  Li  Li24  1  0.03988265  0.61117007  0.13709682  1
  Li  Li25  1  0.46011735  -0.61117007  0.63709682  1
  Li  Li26  1  -0.03988265  1.11117007  -0.13709682  1
  Li  Li27  1  0.53988265  -0.11117007  0.36290318  1
  Li  Li28  1  -0.03988265  -0.61117007  -0.13709682  1
  Li  Li29  1  0.53988265  0.61117007  0.36290318  1
  Li  Li30  1  0.03988265  -0.11117007  0.13709682  1
  Li  Li31  1  0.46011735  1.11117007  0.63709682  1
  Li  Li32  1  0.53814232  0.25000000  0.25177437  1
  Li  Li33  1  0.96185768  0.75000000  0.75177437  1
  Li  Li34  1  0.46185768  0.75000000  0.74822563  1
  Li  Li35  1  0.03814232  0.25000000  0.24822563  1
  Li  Li36  1  0.49181078  0.25000000  0.97223234  1
  Li  Li37  1  0.00818922  0.75000000  0.47223234  1
  Li  Li38  1  0.50818922  0.75000000  0.02776766  1
  Li  Li39  1  0.99181078  0.25000000  0.52776766  1
  Li  Li40  1  0.96704913  0.25000000  0.76851489  1
  Li  Li41  1  0.53295087  0.75000000  0.26851489  1
  Li  Li42  1  0.03295087  0.75000000  0.23148511  1
  Li  Li43  1  0.46704913  0.25000000  0.73148511  1
  Li  Li44  1  0.00000000  0.00000000  0.00000000  1
  Li  Li45  1  0.50000000  0.00000000  0.50000000  1
  Li  Li46  1  0.00000000  0.50000000  0.00000000  1
  Li  Li47  1  0.50000000  0.50000000  0.50000000  1
