# generated using pymatgen
data_LiF
_symmetry_space_group_name_H-M   'P 1'
_cell_length_a   10.45791973
_cell_length_b   11.12013269
_cell_length_c   6.29022692
_cell_angle_alpha   90.00000000
_cell_angle_beta   90.00000000
_cell_angle_gamma   90.00000000
_symmetry_Int_Tables_number   1
_chemical_formula_structural   LiF
_chemical_formula_sum   'Li24 F24'
_cell_volume   731.51222207
_cell_formula_units_Z   24
loop_
 _symmetry_equiv_pos_site_id
 _symmetry_equiv_pos_as_xyz
  1  'x, y, z'
loop_
 _atom_site_type_symbol
 _atom_site_label
 _atom_site_symmetry_multiplicity
 _atom_site_fract_x
 _atom_site_fract_y
 _atom_site_fract_z
 _atom_site_occupancy
  F  F0  1  0.37833656  0.78356313  0.83460929  1
  F  F1  1  0.12166344  0.21643687  0.33460929  1
  F  F2  1  0.62166344  0.28356313  0.16539071  1
  F  F3  1  0.87833656  0.71643687  0.66539071  1
  F  F4  1  0.62166344  0.21643687  0.16539071  1
  F  F5  1  0.87833656  0.78356313  0.66539071  1
  F  F6  1  0.37833656  0.71643687  0.83460929  1
  F  F7  1  0.12166344  0.28356313  0.33460929  1
  F  F8  1  0.77015950  0.25000000  0.33298240  1
  F  F9  1  0.72984050  0.75000000  0.83298240  1
  F  F10  1  0.22984050  0.75000000  0.66701760  1
  F  F11  1  0.27015950  0.25000000  0.16701760  1
  F  F12  1  0.09842548  0.07074800  0.14972798  1
  F  F13  1  0.40157452  0.92925200  0.64972798  1
  F  F14  1  0.90157452  0.57074800  0.85027202  1
  F  F15  1  0.59842548  0.42925200  0.35027202  1
  F  F16  1  0.90157452  0.92925200  0.85027202  1
  F  F17  1  0.59842548  0.07074800  0.35027202  1
  F  F18  1  0.09842548  0.42925200  0.14972798  1
  F  F19  1  0.40157452  0.57074800  0.64972798  1
  F  F20  1  0.09174160  0.25000000  0.63269667  1
  F  F21  1  0.40825840  0.75000000  0.13269667  1
  F  F22  1  0.90825840  0.75000000  0.36730333  1
  F  F23  1  0.59174160  0.25000000  0.86730333  1
  Li  Li24  1  0.00000000  0.00000000  0.00000000  1
  Li  Li25  1  0.50000000  0.00000000  0.50000000  1
  Li  Li26  1  0.00000000  0.50000000  0.00000000  1
  Li  Li27  1  0.50000000  0.50000000  0.50000000  1
  Li  Li28  1  0.97117986  0.25000000  0.75819193  1
  Li  Li29  1  0.52882014  0.75000000  0.25819193  1
  Li  Li30  1  0.02882014  0.75000000  0.24180807  1
  Li  Li31  1  0.47117986  0.25000000  0.74180807  1
  Li  Li32  1  0.33571146  0.25000000  0.87189466  1
  Li  Li33  1  0.16428854  0.75000000  0.37189466  1
  Li  Li34  1  0.66428854  0.75000000  0.12810534  1
  Li  Li35  1  0.83571146  0.25000000  0.62810534  1
  Li  Li36  1  0.42322906  0.35135578  0.06533938  1
  Li  Li37  1  0.07677094  -0.35135578  0.56533938  1
  Li  Li38  1  -0.42322906  0.85135578  -0.06533938  1
  Li  Li39  1  0.92322906  0.14864422  0.43466062  1
  Li  Li40  1  -0.42322906  -0.35135578  -0.06533938  1
  Li  Li41  1  0.92322906  0.35135578  0.43466062  1
  Li  Li42  1  0.42322906  0.14864422  0.06533938  1
  Li  Li43  1  0.07677094  0.85135578  0.56533938  1
  Li  Li44  1  0.00000000  0.00000000  0.50000000  1
  Li  Li45  1  0.50000000  0.00000000  0.00000000  1
  Li  Li46  1  0.00000000  0.50000000  0.50000000  1
  Li  Li47  1  0.50000000  0.50000000  0.00000000  1
