# generated using pymatgen
data_LiF
_symmetry_space_group_name_H-M   'P 1'
_cell_length_a   7.50853609
_cell_length_b   7.50853609
_cell_length_c   10.07764210
_cell_angle_alpha   90.00000000
_cell_angle_beta   90.00000000
_cell_angle_gamma   120.00000000
_symmetry_Int_Tables_number   1
_chemical_formula_structural   LiF
_chemical_formula_sum   'Li20 F20'
_cell_volume   492.03965756
_cell_formula_units_Z   20
loop_
 _symmetry_equiv_pos_site_id
 _symmetry_equiv_pos_as_xyz
  1  'x, y, z'
loop_
 _atom_site_type_symbol
 _atom_site_label
 _atom_site_symmetry_multiplicity
 _atom_site_fract_x
 _atom_site_fract_y
 _atom_site_fract_z
 _atom_site_occupancy
  F  F0  1  0.66666667  0.33333333  0.26765184  1
  F  F1  1  0.66666667  0.33333333  0.73234816  1
  F  F2  1  0.89313585  0.10641776  0.23974991  1
  F  F3  1  0.89358224  0.78671809  0.23974991  1
  F  F4  1  0.21328191  0.10686415  0.23974991  1
  F  F5  1  0.89358224  0.10686415  0.76025009  1
  F  F6  1  0.21328191  0.10641776  0.76025009  1
  F  F7  1  0.89313585  0.78671809  0.76025009  1
  F  F8  1  0.34560649  0.31828828  0.07506441  1
  F  F9  1  0.68171172  0.02731821  0.07506441  1
  F  F10  1  0.97268179  0.65439351  0.07506441  1
  F  F11  1  0.68171172  0.65439351  0.92493559  1
  F  F12  1  0.97268179  0.31828828  0.92493559  1
  F  F13  1  0.34560649  0.02731821  0.92493559  1
  F  F14  1  0.00000000  0.00000000  0.50000000  1
  F  F15  1  0.33333333  0.66666667  0.50000000  1
  F  F16  1  0.53231671  0.46768329  0.00000000  1
  F  F17  1  0.53231671  0.06463342  0.00000000  1
  F  F18  1  0.93536658  0.46768329  0.00000000  1
  F  F19  1  0.66666667  0.33333333  0.50000000  1
  Li  Li20  1  0.45919021  0.13099710  0.73613464  1
  Li  Li21  1  -0.13099710  0.32819312  0.73613464  1
  Li  Li22  1  -0.32819312  -0.45919021  0.73613464  1
  Li  Li23  1  -0.13099710  -0.45919021  -0.73613464  1
  Li  Li24  1  -0.32819312  0.13099710  -0.73613464  1
  Li  Li25  1  0.45919021  0.32819312  -0.73613464  1
  Li  Li26  1  0.03018270  0.20919689  0.14417485  1
  Li  Li27  1  0.79080311  0.82098581  0.14417485  1
  Li  Li28  1  0.17901419  0.96981730  0.14417485  1
  Li  Li29  1  0.79080311  0.96981730  0.85582515  1
  Li  Li30  1  0.17901419  0.20919689  0.85582515  1
  Li  Li31  1  0.03018270  0.82098581  0.85582515  1
  Li  Li32  1  0.52689725  0.61173446  0.95895777  1
  Li  Li33  1  0.38826554  0.91516278  0.95895777  1
  Li  Li34  1  0.08483722  0.47310275  0.95895777  1
  Li  Li35  1  0.38826554  0.47310275  0.04104223  1
  Li  Li36  1  0.08483722  0.61173446  0.04104223  1
  Li  Li37  1  0.52689725  0.91516278  0.04104223  1
  Li  Li38  1  0.33333333  0.66666667  0.00000000  1
  Li  Li39  1  0.00000000  0.00000000  0.00000000  1
