# generated using pymatgen
data_LiCaF3
_symmetry_space_group_name_H-M   'P 1'
_cell_length_a   9.81582024
_cell_length_b   9.81582024
_cell_length_c   20.30631453
_cell_angle_alpha   90.00000000
_cell_angle_beta   90.00000000
_cell_angle_gamma   120.00000000
_symmetry_Int_Tables_number   1
_chemical_formula_structural   LiCaF3
_chemical_formula_sum   'Li18 Ca18 F54'
_cell_volume   1694.39606297
_cell_formula_units_Z   18
loop_
 _symmetry_equiv_pos_site_id
 _symmetry_equiv_pos_as_xyz
  1  'x, y, z'
loop_
 _atom_site_type_symbol
 _atom_site_label
 _atom_site_symmetry_multiplicity
 _atom_site_fract_x
 _atom_site_fract_y
 _atom_site_fract_z
 _atom_site_occupancy
  Ca  Ca0  1  0.50000000  0.00000000  0.00000000  1
  Ca  Ca1  1  0.00000000  0.50000000  0.00000000  1
  Ca  Ca2  1  0.50000000  0.50000000  0.00000000  1
  Ca  Ca3  1  0.00000000  0.50000000  0.50000000  1
  Ca  Ca4  1  0.50000000  0.00000000  0.50000000  1
  Ca  Ca5  1  0.50000000  0.50000000  0.50000000  1
  Ca  Ca6  1  0.16666667  0.33333333  0.33333333  1
  Ca  Ca7  1  0.66666667  0.83333333  0.33333333  1
  Ca  Ca8  1  0.16666667  0.83333333  0.33333333  1
  Ca  Ca9  1  0.66666667  0.83333333  0.83333333  1
  Ca  Ca10  1  0.16666667  0.33333333  0.83333333  1
  Ca  Ca11  1  0.16666667  0.83333333  0.83333333  1
  Ca  Ca12  1  0.83333333  0.66666667  0.66666667  1
  Ca  Ca13  1  0.33333333  0.16666667  0.66666667  1
  Ca  Ca14  1  0.83333333  0.16666667  0.66666667  1
  Ca  Ca15  1  0.33333333  0.16666667  0.16666667  1
  Ca  Ca16  1  0.83333333  0.66666667  0.16666667  1
  Ca  Ca17  1  0.83333333  0.16666667  0.16666667  1
  F  F18  1  0.00202775  0.23950111  0.27758114  1
  F  F19  1  -0.23950111  -0.23747336  0.27758114  1
  F  F20  1  0.23747336  -0.00202775  0.27758114  1
  F  F21  1  0.23950111  0.00202775  0.22241886  1
  F  F22  1  -0.23747336  -0.23950111  0.22241886  1
  F  F23  1  -0.00202775  0.23747336  0.22241886  1
  F  F24  1  -0.00202775  -0.23950111  -0.27758114  1
  F  F25  1  0.23950111  0.23747336  -0.27758114  1
  F  F26  1  -0.23747336  0.00202775  -0.27758114  1
  F  F27  1  -0.23950111  -0.00202775  0.77758114  1
  F  F28  1  0.23747336  0.23950111  0.77758114  1
  F  F29  1  0.00202775  -0.23747336  0.77758114  1
  F  F30  1  0.66869441  0.57283444  0.61091447  1
  F  F31  1  0.42716556  0.09585997  0.61091447  1
  F  F32  1  0.90414003  0.33130559  0.61091447  1
  F  F33  1  0.90616777  0.33536108  0.55575219  1
  F  F34  1  0.42919331  0.09383223  0.55575219  1
  F  F35  1  0.66463892  0.57080669  0.55575219  1
  F  F36  1  0.66463892  0.09383223  0.05575219  1
  F  F37  1  0.90616777  0.57080669  0.05575219  1
  F  F38  1  0.42919331  0.33536108  0.05575219  1
  F  F39  1  0.42716556  0.33130559  1.11091447  1
  F  F40  1  0.90414003  0.57283444  1.11091447  1
  F  F41  1  0.66869441  0.09585997  1.11091447  1
  F  F42  1  0.33536108  0.90616777  0.94424781  1
  F  F43  1  0.09383223  0.42919331  0.94424781  1
  F  F44  1  0.57080669  0.66463892  0.94424781  1
  F  F45  1  0.57283444  0.66869441  0.88908553  1
  F  F46  1  0.09585997  0.42716556  0.88908553  1
  F  F47  1  0.33130559  0.90414003  0.88908553  1
  F  F48  1  0.33130559  0.42716556  0.38908553  1
  F  F49  1  0.57283444  0.90414003  0.38908553  1
  F  F50  1  0.09585997  0.66869441  0.38908553  1
  F  F51  1  0.09383223  0.66463892  1.44424781  1
  F  F52  1  0.57080669  0.90616777  1.44424781  1
  F  F53  1  0.33536108  0.42919331  1.44424781  1
  F  F54  1  0.80118416  0.00000000  0.25000000  1
  F  F55  1  0.00000000  0.80118416  0.25000000  1
  F  F56  1  0.19881584  0.19881584  0.25000000  1
  F  F57  1  0.19881584  0.00000000  0.75000000  1
  F  F58  1  0.00000000  0.19881584  0.75000000  1
  F  F59  1  0.80118416  0.80118416  0.75000000  1
  F  F60  1  0.46785083  0.33333333  0.58333333  1
  F  F61  1  0.66666667  0.13451750  0.58333333  1
  F  F62  1  0.86548250  0.53214917  0.58333333  1
  F  F63  1  0.86548250  0.33333333  0.08333333  1
  F  F64  1  0.66666667  0.53214917  0.08333333  1
  F  F65  1  0.46785083  0.13451750  0.08333333  1
  F  F66  1  0.13451750  0.66666667  0.91666667  1
  F  F67  1  0.33333333  0.46785083  0.91666667  1
  F  F68  1  0.53214917  0.86548250  0.91666667  1
  F  F69  1  0.53214917  0.66666667  0.41666667  1
  F  F70  1  0.33333333  0.86548250  0.41666667  1
  F  F71  1  0.13451750  0.46785083  0.41666667  1
  Li  Li72  1  0.34673998  0.00000000  0.25000000  1
  Li  Li73  1  0.00000000  0.34673998  0.25000000  1
  Li  Li74  1  0.65326002  0.65326002  0.25000000  1
  Li  Li75  1  0.65326002  0.00000000  0.75000000  1
  Li  Li76  1  0.00000000  0.65326002  0.75000000  1
  Li  Li77  1  0.34673998  0.34673998  0.75000000  1
  Li  Li78  1  0.01340665  0.33333333  0.58333333  1
  Li  Li79  1  0.66666667  0.68007332  0.58333333  1
  Li  Li80  1  0.31992668  0.98659335  0.58333333  1
  Li  Li81  1  0.31992668  0.33333333  0.08333333  1
  Li  Li82  1  0.66666667  0.98659335  0.08333333  1
  Li  Li83  1  0.01340665  0.68007332  0.08333333  1
  Li  Li84  1  0.68007332  0.66666667  0.91666667  1
  Li  Li85  1  0.33333333  0.01340665  0.91666667  1
  Li  Li86  1  0.98659335  0.31992668  0.91666667  1
  Li  Li87  1  0.98659335  0.66666667  0.41666667  1
  Li  Li88  1  0.33333333  0.31992668  0.41666667  1
  Li  Li89  1  0.68007332  0.01340665  0.41666667  1
