# generated using pymatgen
data_Li2Y2As3P3Se
_symmetry_space_group_name_H-M   'P 1'
_cell_length_a   5.17399322
_cell_length_b   5.37614309
_cell_length_c   7.22210641
_cell_angle_alpha   94.42532903
_cell_angle_beta   99.63744661
_cell_angle_gamma   107.77478789
_symmetry_Int_Tables_number   1
_chemical_formula_structural   Li2Y2As3P3Se
_chemical_formula_sum   'Li2 Y2 As3 P3 Se1'
_cell_volume   186.83284706
_cell_formula_units_Z   1
loop_
 _symmetry_equiv_pos_site_id
 _symmetry_equiv_pos_as_xyz
  1  'x, y, z'
loop_
 _atom_site_type_symbol
 _atom_site_label
 _atom_site_symmetry_multiplicity
 _atom_site_fract_x
 _atom_site_fract_y
 _atom_site_fract_z
 _atom_site_occupancy
  Se  Se0  1  0.00000000  0.00000000  0.00000000  1
  Y  Y1  1  0.50000000  0.50000000  0.50000000  1
  Y  Y2  1  0.50000000  0.50000000  0.00000000  1
  P  P3  1  0.50000000  0.00000000  0.50000000  1
  P  P4  1  0.00000000  0.50000000  0.50000000  1
  P  P5  1  0.89011314  0.43910970  0.57492045  1
  As  As6  1  0.21708381  0.18687399  0.96156292  1
  As  As7  1  0.06035249  0.32578970  0.01543183  1
  As  As8  1  0.90878229  0.61060434  0.90385576  1
  Li  Li9  1  0.91103647  0.41195384  0.03783898  1
  Li  Li10  1  0.37503164  0.68797657  0.26915016  1
