# generated using pymatgen
data_LiF
_symmetry_space_group_name_H-M   'P 1'
_cell_length_a   11.21938515
_cell_length_b   6.14189395
_cell_length_c   10.70224066
_cell_angle_alpha   90.00000000
_cell_angle_beta   90.00000000
_cell_angle_gamma   90.00000000
_symmetry_Int_Tables_number   1
_chemical_formula_structural   LiF
_chemical_formula_sum   'Li18 F18'
_cell_volume   737.47292982
_cell_formula_units_Z   18
loop_
 _symmetry_equiv_pos_site_id
 _symmetry_equiv_pos_as_xyz
  1  'x, y, z'
loop_
 _atom_site_type_symbol
 _atom_site_label
 _atom_site_symmetry_multiplicity
 _atom_site_fract_x
 _atom_site_fract_y
 _atom_site_fract_z
 _atom_site_occupancy
  F  F0  1  0.88326382  0.45188982  -0.00000000  1
  F  F1  1  0.11673618  0.54811018  0.00000000  1
  F  F2  1  0.61673618  0.95188982  -0.00000000  1
  F  F3  1  0.38326382  0.04811018  0.00000000  1
  F  F4  1  0.00000000  0.00000000  0.50000000  1
  F  F5  1  0.50000000  0.50000000  0.50000000  1
  F  F6  1  0.77513482  0.10998880  0.74252814  1
  F  F7  1  -0.77513482  -0.10998880  0.74252814  1
  F  F8  1  -0.27513482  0.60998880  -0.74252814  1
  F  F9  1  1.27513482  0.39001120  -0.74252814  1
  F  F10  1  -0.77513482  -0.10998880  -0.74252814  1
  F  F11  1  0.77513482  0.10998880  -0.74252814  1
  F  F12  1  1.27513482  0.39001120  0.74252814  1
  F  F13  1  -0.27513482  0.60998880  0.74252814  1
  F  F14  1  0.55142663  0.76893677  0.00000000  1
  F  F15  1  0.44857337  0.23106323  0.00000000  1
  F  F16  1  0.94857337  0.26893677  -0.00000000  1
  F  F17  1  0.05142663  0.73106323  0.00000000  1
  Li  Li18  1  0.79038618  0.47057266  0.57239277  1
  Li  Li19  1  0.20961382  0.52942734  0.57239277  1
  Li  Li20  1  0.70961382  0.97057266  0.42760723  1
  Li  Li21  1  0.29038618  0.02942734  0.42760723  1
  Li  Li22  1  0.20961382  0.52942734  0.42760723  1
  Li  Li23  1  0.79038618  0.47057266  0.42760723  1
  Li  Li24  1  0.29038618  0.02942734  0.57239277  1
  Li  Li25  1  0.70961382  0.97057266  0.57239277  1
  Li  Li26  1  0.07601672  0.93932090  0.79033388  1
  Li  Li27  1  0.92398328  0.06067910  0.79033388  1
  Li  Li28  1  0.42398328  0.43932090  0.20966612  1
  Li  Li29  1  0.57601672  0.56067910  0.20966612  1
  Li  Li30  1  0.92398328  0.06067910  0.20966612  1
  Li  Li31  1  0.07601672  0.93932090  0.20966612  1
  Li  Li32  1  0.57601672  0.56067910  0.79033388  1
  Li  Li33  1  0.42398328  0.43932090  0.79033388  1
  Li  Li34  1  0.00000000  0.50000000  0.00000000  1
  Li  Li35  1  0.50000000  0.00000000  0.00000000  1
