# generated using pymatgen
data_Li2Y2Mo(PSe)2
_symmetry_space_group_name_H-M   'P 1'
_cell_length_a   5.52699281
_cell_length_b   5.77843774
_cell_length_c   7.27843116
_cell_angle_alpha   93.83401865
_cell_angle_beta   98.34969555
_cell_angle_gamma   105.39972913
_symmetry_Int_Tables_number   1
_chemical_formula_structural   Li2Y2Mo(PSe)2
_chemical_formula_sum   'Li2 Y2 Mo1 P2 Se2'
_cell_volume   220.37416931
_cell_formula_units_Z   1
loop_
 _symmetry_equiv_pos_site_id
 _symmetry_equiv_pos_as_xyz
  1  'x, y, z'
loop_
 _atom_site_type_symbol
 _atom_site_label
 _atom_site_symmetry_multiplicity
 _atom_site_fract_x
 _atom_site_fract_y
 _atom_site_fract_z
 _atom_site_occupancy
  Se  Se0  1  0.12500000  0.00000000  0.25000000  1
  Se  Se1  1  0.00000000  0.00000000  0.00000000  1
  Y  Y2  1  0.37500000  0.00000000  0.25000000  1
  Y  Y3  1  0.25000000  0.25000000  0.25000000  1
  P  P4  1  0.00000000  0.25000000  0.12500000  1
  P  P5  1  0.16321579  0.80660713  0.20878887  1
  Mo  Mo6  1  0.47858486  0.99142832  0.47586137  1
  Li  Li7  1  0.62990498  0.74507586  0.45371435  1
  Li  Li8  1  0.36490429  0.96939029  0.09071343  1
