# generated using pymatgen
data_LiF
_symmetry_space_group_name_H-M   'P 1'
_cell_length_a   7.61873267
_cell_length_b   7.61873267
_cell_length_c   13.85938928
_cell_angle_alpha   90.00000000
_cell_angle_beta   90.00000000
_cell_angle_gamma   120.00000000
_symmetry_Int_Tables_number   1
_chemical_formula_structural   LiF
_chemical_formula_sum   'Li32 F32'
_cell_volume   696.69099211
_cell_formula_units_Z   32
loop_
 _symmetry_equiv_pos_site_id
 _symmetry_equiv_pos_as_xyz
  1  'x, y, z'
loop_
 _atom_site_type_symbol
 _atom_site_label
 _atom_site_symmetry_multiplicity
 _atom_site_fract_x
 _atom_site_fract_y
 _atom_site_fract_z
 _atom_site_occupancy
  F  F0  1  0.29070588  0.25792487  0.24240886  1
  F  F1  1  0.74207513  0.03278101  0.24240886  1
  F  F2  1  0.96721899  0.70929412  0.24240886  1
  F  F3  1  0.74207513  0.70929412  0.75759114  1
  F  F4  1  0.96721899  0.25792487  0.75759114  1
  F  F5  1  0.29070588  0.03278101  0.75759114  1
  F  F6  1  0.26015198  0.73984802  0.50000000  1
  F  F7  1  0.26015198  0.52030395  0.50000000  1
  F  F8  1  0.47969605  0.73984802  0.50000000  1
  F  F9  1  0.43573372  0.79656010  0.30528228  1
  F  F10  1  0.20343990  0.63917362  0.30528228  1
  F  F11  1  0.36082638  0.56426628  0.30528228  1
  F  F12  1  0.20343990  0.56426628  0.69471772  1
  F  F13  1  0.36082638  0.79656010  0.69471772  1
  F  F14  1  0.43573372  0.63917362  0.69471772  1
  F  F15  1  0.00000000  0.00000000  0.22361480  1
  F  F16  1  0.00000000  0.00000000  0.77638520  1
  F  F17  1  0.00000000  0.00000000  0.62202565  1
  F  F18  1  0.00000000  0.00000000  0.37797435  1
  F  F19  1  0.97532252  0.90327484  0.16801356  1
  F  F20  1  0.09672516  0.07204769  0.16801356  1
  F  F21  1  0.92795231  0.02467748  0.16801356  1
  F  F22  1  0.09672516  0.02467748  0.83198644  1
  F  F23  1  0.92795231  0.90327484  0.83198644  1
  F  F24  1  0.97532252  0.07204769  0.83198644  1
  F  F25  1  0.66666667  0.33333333  0.00000000  1
  F  F26  1  0.48060988  0.17306553  0.42582441  1
  F  F27  1  0.82693447  0.30754435  0.42582441  1
  F  F28  1  0.69245565  0.51939012  0.42582441  1
  F  F29  1  0.82693447  0.51939012  0.57417559  1
  F  F30  1  0.69245565  0.17306553  0.57417559  1
  F  F31  1  0.48060988  0.30754435  0.57417559  1
  Li  Li32  1  0.27796825  0.01862953  0.14658799  1
  Li  Li33  1  -0.01862953  0.25933872  0.14658799  1
  Li  Li34  1  -0.25933872  -0.27796825  0.14658799  1
  Li  Li35  1  -0.01862953  -0.27796825  -0.14658799  1
  Li  Li36  1  -0.25933872  0.01862953  -0.14658799  1
  Li  Li37  1  0.27796825  0.25933872  -0.14658799  1
  Li  Li38  1  0.00699180  0.40409483  0.75856618  1
  Li  Li39  1  0.59590517  0.60289697  0.75856618  1
  Li  Li40  1  0.39710303  0.99300820  0.75856618  1
  Li  Li41  1  0.59590517  0.99300820  0.24143382  1
  Li  Li42  1  0.39710303  0.40409483  0.24143382  1
  Li  Li43  1  0.00699180  0.60289697  0.24143382  1
  Li  Li44  1  0.66666667  0.33333333  0.50000000  1
  Li  Li45  1  0.39166201  0.00711689  0.00907143  1
  Li  Li46  1  0.99288311  0.38454512  0.00907143  1
  Li  Li47  1  0.61545488  0.60833799  0.00907143  1
  Li  Li48  1  0.99288311  0.60833799  0.99092857  1
  Li  Li49  1  0.61545488  0.00711689  0.99092857  1
  Li  Li50  1  0.39166201  0.38454512  0.99092857  1
  Li  Li51  1  0.57162828  0.76302894  0.62907546  1
  Li  Li52  1  0.23697106  0.80859935  0.62907546  1
  Li  Li53  1  0.19140065  0.42837172  0.62907546  1
  Li  Li54  1  0.23697106  0.42837172  0.37092454  1
  Li  Li55  1  0.19140065  0.76302894  0.37092454  1
  Li  Li56  1  0.57162828  0.80859935  0.37092454  1
  Li  Li57  1  0.00000000  0.00000000  0.00000000  1
  Li  Li58  1  0.60929464  0.50237763  0.66097768  1
  Li  Li59  1  0.49762237  0.10691701  0.66097768  1
  Li  Li60  1  0.89308299  0.39070536  0.66097768  1
  Li  Li61  1  0.49762237  0.39070536  0.33902232  1
  Li  Li62  1  0.89308299  0.50237763  0.33902232  1
  Li  Li63  1  0.60929464  0.10691701  0.33902232  1
