# generated using pymatgen
data_Li2Sb2MoP2Se
_symmetry_space_group_name_H-M   'P 1'
_cell_length_a   5.02350922
_cell_length_b   5.18226878
_cell_length_c   7.00818777
_cell_angle_alpha   94.42515078
_cell_angle_beta   99.80944587
_cell_angle_gamma   107.98221992
_symmetry_Int_Tables_number   1
_chemical_formula_structural   Li2Sb2MoP2Se
_chemical_formula_sum   'Li2 Sb2 Mo1 P2 Se1'
_cell_volume   169.34966462
_cell_formula_units_Z   1
loop_
 _symmetry_equiv_pos_site_id
 _symmetry_equiv_pos_as_xyz
  1  'x, y, z'
loop_
 _atom_site_type_symbol
 _atom_site_label
 _atom_site_symmetry_multiplicity
 _atom_site_fract_x
 _atom_site_fract_y
 _atom_site_fract_z
 _atom_site_occupancy
  Se  Se0  1  0.00000000  0.00000000  0.00000000  1
  P  P1  1  0.50000000  0.50000000  0.50000000  1
  P  P2  1  0.50000000  0.50000000  0.00000000  1
  Mo  Mo3  1  0.50000000  0.00000000  0.50000000  1
  Li  Li4  1  0.00000000  0.50000000  0.50000000  1
  Li  Li5  1  0.46387382  0.97512504  0.32423487  1
  Sb  Sb6  1  0.14745361  0.46420241  0.75414133  1
  Sb  Sb7  1  0.37153744  0.50566144  0.22118831  1
