# generated using pymatgen
data_LiYP2Se
_symmetry_space_group_name_H-M   'P 1'
_cell_length_a   5.43758478
_cell_length_b   5.77401967
_cell_length_c   7.36629087
_cell_angle_alpha   93.92472976
_cell_angle_beta   98.54724549
_cell_angle_gamma   105.76407961
_symmetry_Int_Tables_number   1
_chemical_formula_structural   LiYP2Se
_chemical_formula_sum   'Li2 Y2 P4 Se2'
_cell_volume   218.66295332
_cell_formula_units_Z   2
loop_
 _symmetry_equiv_pos_site_id
 _symmetry_equiv_pos_as_xyz
  1  'x, y, z'
loop_
 _atom_site_type_symbol
 _atom_site_label
 _atom_site_symmetry_multiplicity
 _atom_site_fract_x
 _atom_site_fract_y
 _atom_site_fract_z
 _atom_site_occupancy
  Se  Se0  1  0.00000000  0.00000000  0.00000000  1
  Se  Se1  1  0.50000000  0.50000000  0.50000000  1
  Y  Y2  1  0.50000000  0.50000000  0.00000000  1
  Y  Y3  1  0.50000000  0.00000000  0.50000000  1
  P  P4  1  0.00000000  0.50000000  0.50000000  1
  P  P5  1  0.07565677  0.79924666  0.26503864  1
  P  P6  1  0.24443445  0.16244212  0.53016166  1
  P  P7  1  0.24937112  0.25353455  0.50136089  1
  Li  Li8  1  0.76421795  0.73939116  0.49223146  1
  Li  Li9  1  0.28606935  0.34504176  0.18197592  1
