# generated using pymatgen
data_LiF
_symmetry_space_group_name_H-M   'P 1'
_cell_length_a   9.38771981
_cell_length_b   9.38771981
_cell_length_c   15.75966870
_cell_angle_alpha   90.00000000
_cell_angle_beta   90.00000000
_cell_angle_gamma   120.00000000
_symmetry_Int_Tables_number   1
_chemical_formula_structural   LiF
_chemical_formula_sum   'Li51 F51'
_cell_volume   1202.81255754
_cell_formula_units_Z   51
loop_
 _symmetry_equiv_pos_site_id
 _symmetry_equiv_pos_as_xyz
  1  'x, y, z'
loop_
 _atom_site_type_symbol
 _atom_site_label
 _atom_site_symmetry_multiplicity
 _atom_site_fract_x
 _atom_site_fract_y
 _atom_site_fract_z
 _atom_site_occupancy
  F  F0  1  0.66666667  0.33333333  0.77908937  1
  F  F1  1  0.66666667  0.33333333  0.22091063  1
  F  F2  1  0.64284116  0.01520282  0.01435673  1
  F  F3  1  0.98479718  0.62763834  0.01435673  1
  F  F4  1  0.37236166  0.35715884  0.01435673  1
  F  F5  1  0.98479718  0.35715884  0.98564327  1
  F  F6  1  0.37236166  0.01520282  0.98564327  1
  F  F7  1  0.64284116  0.62763834  0.98564327  1
  F  F8  1  0.68366388  0.90521196  0.89152636  1
  F  F9  1  0.09478804  0.77845192  0.89152636  1
  F  F10  1  0.22154808  0.31633612  0.89152636  1
  F  F11  1  0.09478804  0.31633612  0.10847364  1
  F  F12  1  0.22154808  0.90521196  0.10847364  1
  F  F13  1  0.68366388  0.77845192  0.10847364  1
  F  F14  1  0.10703858  0.85533678  0.30911688  1
  F  F15  1  0.14466322  0.25170180  0.30911688  1
  F  F16  1  0.74829820  0.89296142  0.30911688  1
  F  F17  1  0.14466322  0.89296142  0.69088312  1
  F  F18  1  0.74829820  0.85533678  0.69088312  1
  F  F19  1  0.10703858  0.25170180  0.69088312  1
  F  F20  1  0.32207766  0.02032857  0.69637546  1
  F  F21  1  0.97967143  0.30174909  0.69637546  1
  F  F22  1  0.69825091  0.67792234  0.69637546  1
  F  F23  1  0.97967143  0.67792234  0.30362454  1
  F  F24  1  0.69825091  0.02032857  0.30362454  1
  F  F25  1  0.32207766  0.30174909  0.30362454  1
  F  F26  1  0.97666058  0.54620334  0.92126380  1
  F  F27  1  0.45379666  0.43045725  0.92126380  1
  F  F28  1  0.56954275  0.02333942  0.92126380  1
  F  F29  1  0.45379666  0.02333942  0.07873620  1
  F  F30  1  0.56954275  0.54620334  0.07873620  1
  F  F31  1  0.97666058  0.43045725  0.07873620  1
  F  F32  1  0.33333333  0.66666667  0.08494305  1
  F  F33  1  0.33333333  0.66666667  0.91505695  1
  F  F34  1  0.46490248  0.53509752  0.50000000  1
  F  F35  1  0.46490248  0.92980496  0.50000000  1
  F  F36  1  0.07019504  0.53509752  0.50000000  1
  F  F37  1  0.70866194  0.64500891  0.99503025  1
  F  F38  1  0.35499109  0.06365303  0.99503025  1
  F  F39  1  0.93634697  0.29133806  0.99503025  1
  F  F40  1  0.35499109  0.29133806  0.00496975  1
  F  F41  1  0.93634697  0.64500891  0.00496975  1
  F  F42  1  0.70866194  0.06365303  0.00496975  1
  F  F43  1  0.74038289  0.16535832  0.41427321  1
  F  F44  1  0.83464168  0.57502457  0.41427321  1
  F  F45  1  0.42497543  0.25961711  0.41427321  1
  F  F46  1  0.83464168  0.25961711  0.58572679  1
  F  F47  1  0.42497543  0.16535832  0.58572679  1
  F  F48  1  0.74038289  0.57502457  0.58572679  1
  F  F49  1  0.33333333  0.66666667  0.38721403  1
  F  F50  1  0.33333333  0.66666667  0.61278597  1
  Li  Li51  1  0.40707561  0.93005213  0.11388469  1
  Li  Li52  1  -0.93005213  -0.52297652  0.11388469  1
  Li  Li53  1  0.52297652  -0.40707561  0.11388469  1
  Li  Li54  1  -0.93005213  -0.40707561  -0.11388469  1
  Li  Li55  1  0.52297652  0.93005213  -0.11388469  1
  Li  Li56  1  0.40707561  -0.52297652  -0.11388469  1
  Li  Li57  1  0.33333333  0.66666667  0.50000000  1
  Li  Li58  1  0.66666667  0.33333333  0.45581474  1
  Li  Li59  1  0.66666667  0.33333333  0.54418526  1
  Li  Li60  1  0.35042967  0.05450119  0.46607396  1
  Li  Li61  1  0.94549881  0.29592848  0.46607396  1
  Li  Li62  1  0.70407152  0.64957033  0.46607396  1
  Li  Li63  1  0.94549881  0.64957033  0.53392604  1
  Li  Li64  1  0.70407152  0.05450119  0.53392604  1
  Li  Li65  1  0.35042967  0.29592848  0.53392604  1
  Li  Li66  1  0.27888994  0.72111006  0.00000000  1
  Li  Li67  1  0.27888994  0.55777988  0.00000000  1
  Li  Li68  1  0.44222012  0.72111006  0.00000000  1
  Li  Li69  1  0.08018000  0.91982000  0.50000000  1
  Li  Li70  1  0.08018000  0.16036000  0.50000000  1
  Li  Li71  1  0.83964000  0.91982000  0.50000000  1
  Li  Li72  1  0.25079984  0.85284029  0.42640617  1
  Li  Li73  1  0.14715971  0.39795956  0.42640617  1
  Li  Li74  1  0.60204044  0.74920016  0.42640617  1
  Li  Li75  1  0.14715971  0.74920016  0.57359383  1
  Li  Li76  1  0.60204044  0.85284029  0.57359383  1
  Li  Li77  1  0.25079984  0.39795956  0.57359383  1
  Li  Li78  1  0.12083169  0.87916831  0.00000000  1
  Li  Li79  1  0.12083169  0.24166339  0.00000000  1
  Li  Li80  1  0.75833661  0.87916831  0.00000000  1
  Li  Li81  1  0.01809575  0.09831149  0.10349331  1
  Li  Li82  1  0.90168851  0.91978426  0.10349331  1
  Li  Li83  1  0.08021574  0.98190425  0.10349331  1
  Li  Li84  1  0.90168851  0.98190425  0.89650669  1
  Li  Li85  1  0.08021574  0.09831149  0.89650669  1
  Li  Li86  1  0.01809575  0.91978426  0.89650669  1
  Li  Li87  1  0.00000000  0.00000000  0.00000000  1
  Li  Li88  1  0.12832705  0.38322880  0.95175866  1
  Li  Li89  1  0.61677120  0.74509825  0.95175866  1
  Li  Li90  1  0.25490175  0.87167295  0.95175866  1
  Li  Li91  1  0.61677120  0.87167295  0.04824134  1
  Li  Li92  1  0.25490175  0.38322880  0.04824134  1
  Li  Li93  1  0.12832705  0.74509825  0.04824134  1
  Li  Li94  1  0.12260639  0.26686176  0.77302212  1
  Li  Li95  1  0.73313824  0.85574463  0.77302212  1
  Li  Li96  1  0.14425537  0.87739361  0.77302212  1
  Li  Li97  1  0.73313824  0.87739361  0.22697788  1
  Li  Li98  1  0.14425537  0.26686176  0.22697788  1
  Li  Li99  1  0.12260639  0.85574463  0.22697788  1
  Li  Li100  1  0.33333333  0.66666667  0.30110165  1
  Li  Li101  1  0.33333333  0.66666667  0.69889835  1
