# generated using pymatgen
data_LiF
_symmetry_space_group_name_H-M   'P 1'
_cell_length_a   4.49324047
_cell_length_b   9.19576813
_cell_length_c   13.87711073
_cell_angle_alpha   90.00000000
_cell_angle_beta   90.00000000
_cell_angle_gamma   90.00000000
_symmetry_Int_Tables_number   1
_chemical_formula_structural   LiF
_chemical_formula_sum   'Li24 F24'
_cell_volume   573.38552885
_cell_formula_units_Z   24
loop_
 _symmetry_equiv_pos_site_id
 _symmetry_equiv_pos_as_xyz
  1  'x, y, z'
loop_
 _atom_site_type_symbol
 _atom_site_label
 _atom_site_symmetry_multiplicity
 _atom_site_fract_x
 _atom_site_fract_y
 _atom_site_fract_z
 _atom_site_occupancy
  F  F0  1  0.24340190  0.10564480  0.15693137  1
  F  F1  1  0.75659810  0.89435520  0.15693137  1
  F  F2  1  0.25659810  0.60564480  0.84306863  1
  F  F3  1  0.74340190  0.39435520  0.84306863  1
  F  F4  1  0.75659810  0.89435520  0.84306863  1
  F  F5  1  0.24340190  0.10564480  0.84306863  1
  F  F6  1  0.74340190  0.39435520  0.15693137  1
  F  F7  1  0.25659810  0.60564480  0.15693137  1
  F  F8  1  0.08258433  0.12989404  0.40437974  1
  F  F9  1  0.91741567  0.87010596  0.40437974  1
  F  F10  1  0.41741567  0.62989404  0.59562026  1
  F  F11  1  0.58258433  0.37010596  0.59562026  1
  F  F12  1  0.91741567  0.87010596  0.59562026  1
  F  F13  1  0.08258433  0.12989404  0.59562026  1
  F  F14  1  0.58258433  0.37010596  0.40437974  1
  F  F15  1  0.41741567  0.62989404  0.40437974  1
  F  F16  1  0.52052822  0.33437025  0.00000000  1
  F  F17  1  0.47947178  0.66562975  0.00000000  1
  F  F18  1  0.97947178  0.83437025  0.00000000  1
  F  F19  1  0.02052822  0.16562975  0.00000000  1
  F  F20  1  0.00000000  0.00000000  0.61165926  1
  F  F21  1  0.50000000  0.50000000  0.38834074  1
  F  F22  1  0.00000000  0.00000000  0.38834074  1
  F  F23  1  0.50000000  0.50000000  0.61165926  1
  Li  Li24  1  0.61548848  0.18350527  0.56740454  1
  Li  Li25  1  -0.61548848  -0.18350527  0.56740454  1
  Li  Li26  1  -0.11548848  0.68350527  -0.56740454  1
  Li  Li27  1  1.11548848  0.31649473  -0.56740454  1
  Li  Li28  1  -0.61548848  -0.18350527  -0.56740454  1
  Li  Li29  1  0.61548848  0.18350527  -0.56740454  1
  Li  Li30  1  1.11548848  0.31649473  0.56740454  1
  Li  Li31  1  -0.11548848  0.68350527  0.56740454  1
  Li  Li32  1  0.79652473  0.05544870  0.90151286  1
  Li  Li33  1  0.20347527  0.94455130  0.90151286  1
  Li  Li34  1  0.70347527  0.55544870  0.09848714  1
  Li  Li35  1  0.29652473  0.44455130  0.09848714  1
  Li  Li36  1  0.20347527  0.94455130  0.09848714  1
  Li  Li37  1  0.79652473  0.05544870  0.09848714  1
  Li  Li38  1  0.29652473  0.44455130  0.90151286  1
  Li  Li39  1  0.70347527  0.55544870  0.90151286  1
  Li  Li40  1  0.19120055  0.55281482  0.50000000  1
  Li  Li41  1  0.80879945  0.44718518  0.50000000  1
  Li  Li42  1  0.30879945  0.05281482  0.50000000  1
  Li  Li43  1  0.69120055  0.94718518  0.50000000  1
  Li  Li44  1  0.00000000  0.00000000  0.50000000  1
  Li  Li45  1  0.50000000  0.50000000  0.50000000  1
  Li  Li46  1  0.00000000  0.50000000  0.00000000  1
  Li  Li47  1  0.50000000  0.00000000  -0.00000000  1
