# generated using pymatgen
data_LiF
_symmetry_space_group_name_H-M   'P 1'
_cell_length_a   10.81366129
_cell_length_b   10.81366129
_cell_length_c   9.08989416
_cell_angle_alpha   90.00000000
_cell_angle_beta   90.00000000
_cell_angle_gamma   120.00000000
_symmetry_Int_Tables_number   1
_chemical_formula_structural   LiF
_chemical_formula_sum   'Li36 F36'
_cell_volume   920.52371796
_cell_formula_units_Z   36
loop_
 _symmetry_equiv_pos_site_id
 _symmetry_equiv_pos_as_xyz
  1  'x, y, z'
loop_
 _atom_site_type_symbol
 _atom_site_label
 _atom_site_symmetry_multiplicity
 _atom_site_fract_x
 _atom_site_fract_y
 _atom_site_fract_z
 _atom_site_occupancy
  F  F0  1  0.35889303  0.39018682  0.68407821  1
  F  F1  1  0.60981318  0.96870621  0.68407821  1
  F  F2  1  0.03129379  0.64110697  0.68407821  1
  F  F3  1  0.64110697  0.60981318  0.18407821  1
  F  F4  1  0.39018682  0.03129379  0.18407821  1
  F  F5  1  0.96870621  0.35889303  0.18407821  1
  F  F6  1  0.39018682  0.35889303  0.31592179  1
  F  F7  1  0.96870621  0.60981318  0.31592179  1
  F  F8  1  0.64110697  0.03129379  0.31592179  1
  F  F9  1  0.60981318  0.64110697  0.81592179  1
  F  F10  1  0.03129379  0.39018682  0.81592179  1
  F  F11  1  0.35889303  0.96870621  0.81592179  1
  F  F12  1  0.64110697  0.60981318  0.31592179  1
  F  F13  1  0.39018682  0.03129379  0.31592179  1
  F  F14  1  0.96870621  0.35889303  0.31592179  1
  F  F15  1  0.35889303  0.39018682  0.81592179  1
  F  F16  1  0.60981318  0.96870621  0.81592179  1
  F  F17  1  0.03129379  0.64110697  0.81592179  1
  F  F18  1  0.60981318  0.64110697  0.68407821  1
  F  F19  1  0.03129379  0.39018682  0.68407821  1
  F  F20  1  0.35889303  0.96870621  0.68407821  1
  F  F21  1  0.39018682  0.35889303  0.18407821  1
  F  F22  1  0.96870621  0.60981318  0.18407821  1
  F  F23  1  0.64110697  0.03129379  0.18407821  1
  F  F24  1  0.00000000  0.00000000  0.00000000  1
  F  F25  1  0.00000000  0.00000000  0.50000000  1
  F  F26  1  0.50000000  0.00000000  0.00000000  1
  F  F27  1  0.00000000  0.50000000  0.00000000  1
  F  F28  1  0.50000000  0.50000000  0.00000000  1
  F  F29  1  0.50000000  0.00000000  0.50000000  1
  F  F30  1  0.00000000  0.50000000  0.50000000  1
  F  F31  1  0.50000000  0.50000000  0.50000000  1
  F  F32  1  0.33333333  0.66666667  0.82085853  1
  F  F33  1  0.66666667  0.33333333  0.32085853  1
  F  F34  1  0.66666667  0.33333333  0.17914147  1
  F  F35  1  0.33333333  0.66666667  0.67914147  1
  Li  Li36  1  0.42591628  0.85183256  0.25000000  1
  Li  Li37  1  0.14816744  0.57408372  0.25000000  1
  Li  Li38  1  0.42591628  0.57408372  0.25000000  1
  Li  Li39  1  0.57408372  0.14816744  0.75000000  1
  Li  Li40  1  0.85183256  0.42591628  0.75000000  1
  Li  Li41  1  0.57408372  0.42591628  0.75000000  1
  Li  Li42  1  0.33333333  0.66666667  0.25000000  1
  Li  Li43  1  0.66666667  0.33333333  0.75000000  1
  Li  Li44  1  0.33917521  0.26462142  0.85977130  1
  Li  Li45  1  -0.26462142  0.07455379  0.85977130  1
  Li  Li46  1  -0.07455379  -0.33917521  0.85977130  1
  Li  Li47  1  -0.33917521  -0.26462142  1.35977130  1
  Li  Li48  1  0.26462142  -0.07455379  1.35977130  1
  Li  Li49  1  0.07455379  0.33917521  1.35977130  1
  Li  Li50  1  0.26462142  0.33917521  -0.85977130  1
  Li  Li51  1  0.07455379  -0.26462142  -0.85977130  1
  Li  Li52  1  -0.33917521  -0.07455379  -0.85977130  1
  Li  Li53  1  -0.26462142  -0.33917521  -0.35977130  1
  Li  Li54  1  -0.07455379  0.26462142  -0.35977130  1
  Li  Li55  1  0.33917521  0.07455379  -0.35977130  1
  Li  Li56  1  -0.33917521  -0.26462142  -0.85977130  1
  Li  Li57  1  0.26462142  -0.07455379  -0.85977130  1
  Li  Li58  1  0.07455379  0.33917521  -0.85977130  1
  Li  Li59  1  0.33917521  0.26462142  -0.35977130  1
  Li  Li60  1  -0.26462142  0.07455379  -0.35977130  1
  Li  Li61  1  -0.07455379  -0.33917521  -0.35977130  1
  Li  Li62  1  -0.26462142  -0.33917521  0.85977130  1
  Li  Li63  1  -0.07455379  0.26462142  0.85977130  1
  Li  Li64  1  0.33917521  0.07455379  0.85977130  1
  Li  Li65  1  0.26462142  0.33917521  1.35977130  1
  Li  Li66  1  0.07455379  -0.26462142  1.35977130  1
  Li  Li67  1  -0.33917521  -0.07455379  1.35977130  1
  Li  Li68  1  0.33333333  0.66666667  0.96121049  1
  Li  Li69  1  0.66666667  0.33333333  0.46121049  1
  Li  Li70  1  0.66666667  0.33333333  0.03878951  1
  Li  Li71  1  0.33333333  0.66666667  0.53878951  1
