# generated using pymatgen
data_LiF
_symmetry_space_group_name_H-M   'P 1'
_cell_length_a   7.15522926
_cell_length_b   13.25135990
_cell_length_c   6.80398412
_cell_angle_alpha   90.00000000
_cell_angle_beta   90.00000000
_cell_angle_gamma   90.00000000
_symmetry_Int_Tables_number   1
_chemical_formula_structural   LiF
_chemical_formula_sum   'Li24 F24'
_cell_volume   645.13008408
_cell_formula_units_Z   24
loop_
 _symmetry_equiv_pos_site_id
 _symmetry_equiv_pos_as_xyz
  1  'x, y, z'
loop_
 _atom_site_type_symbol
 _atom_site_label
 _atom_site_symmetry_multiplicity
 _atom_site_fract_x
 _atom_site_fract_y
 _atom_site_fract_z
 _atom_site_occupancy
  F  F0  1  0.02738377  0.04663744  0.74893384  1
  F  F1  1  0.47261623  0.95336256  0.24893384  1
  F  F2  1  0.97261623  0.54663744  0.25106616  1
  F  F3  1  0.52738377  0.45336256  0.75106616  1
  F  F4  1  0.97261623  0.95336256  0.25106616  1
  F  F5  1  0.52738377  0.04663744  0.75106616  1
  F  F6  1  0.02738377  0.45336256  0.74893384  1
  F  F7  1  0.47261623  0.54663744  0.24893384  1
  F  F8  1  0.79079447  0.67833446  0.30979895  1
  F  F9  1  0.70920553  0.32166554  0.80979895  1
  F  F10  1  0.20920553  0.17833446  0.69020105  1
  F  F11  1  0.29079447  0.82166554  0.19020105  1
  F  F12  1  0.20920553  0.32166554  0.69020105  1
  F  F13  1  0.29079447  0.67833446  0.19020105  1
  F  F14  1  0.79079447  0.82166554  0.30979895  1
  F  F15  1  0.70920553  0.17833446  0.80979895  1
  F  F16  1  0.45414201  0.25000000  0.04487065  1
  F  F17  1  0.04585799  0.75000000  0.54487065  1
  F  F18  1  0.54585799  0.75000000  0.95512935  1
  F  F19  1  0.95414201  0.25000000  0.45512935  1
  F  F20  1  0.88321690  0.25000000  0.03791739  1
  F  F21  1  0.61678310  0.75000000  0.53791739  1
  F  F22  1  0.11678310  0.75000000  0.96208261  1
  F  F23  1  0.38321690  0.25000000  0.46208261  1
  Li  Li24  1  0.54041929  0.40084648  0.10711605  1
  Li  Li25  1  -0.04041929  -0.40084648  0.60711605  1
  Li  Li26  1  -0.54041929  0.90084648  -0.10711605  1
  Li  Li27  1  1.04041929  0.09915352  0.39288395  1
  Li  Li28  1  -0.54041929  -0.40084648  -0.10711605  1
  Li  Li29  1  1.04041929  0.40084648  0.39288395  1
  Li  Li30  1  0.54041929  0.09915352  0.10711605  1
  Li  Li31  1  -0.04041929  0.90084648  0.60711605  1
  Li  Li32  1  0.00000000  0.00000000  0.50000000  1
  Li  Li33  1  0.50000000  0.00000000  0.00000000  1
  Li  Li34  1  0.00000000  0.50000000  0.50000000  1
  Li  Li35  1  0.50000000  0.50000000  0.00000000  1
  Li  Li36  1  0.00000000  0.00000000  0.00000000  1
  Li  Li37  1  0.50000000  0.00000000  0.50000000  1
  Li  Li38  1  0.00000000  0.50000000  0.00000000  1
  Li  Li39  1  0.50000000  0.50000000  0.50000000  1
  Li  Li40  1  0.67270057  0.64792636  0.05709845  1
  Li  Li41  1  0.82729943  0.35207364  0.55709845  1
  Li  Li42  1  0.32729943  0.14792636  0.94290155  1
  Li  Li43  1  0.17270057  0.85207364  0.44290155  1
  Li  Li44  1  0.32729943  0.35207364  0.94290155  1
  Li  Li45  1  0.17270057  0.64792636  0.44290155  1
  Li  Li46  1  0.67270057  0.85207364  0.05709845  1
  Li  Li47  1  0.82729943  0.14792636  0.55709845  1
