# generated using pymatgen
data_LiY2MoP2Se
_symmetry_space_group_name_H-M   'P 1'
_cell_length_a   4.97040800
_cell_length_b   5.07656358
_cell_length_c   6.19129985
_cell_angle_alpha   94.04846841
_cell_angle_beta   95.79240878
_cell_angle_gamma   101.51816420
_symmetry_Int_Tables_number   1
_chemical_formula_structural   LiY2MoP2Se
_chemical_formula_sum   'Li1 Y2 Mo1 P2 Se1'
_cell_volume   151.63349740
_cell_formula_units_Z   1
loop_
 _symmetry_equiv_pos_site_id
 _symmetry_equiv_pos_as_xyz
  1  'x, y, z'
loop_
 _atom_site_type_symbol
 _atom_site_label
 _atom_site_symmetry_multiplicity
 _atom_site_fract_x
 _atom_site_fract_y
 _atom_site_fract_z
 _atom_site_occupancy
  Se  Se0  1  0.12500000  0.00000000  0.25000000  1
  Y  Y1  1  0.00000000  0.00000000  0.00000000  1
  Y  Y2  1  0.37500000  0.00000000  0.25000000  1
  P  P3  1  0.25000000  0.25000000  0.25000000  1
  P  P4  1  0.00000000  0.25000000  0.12500000  1
  Mo  Mo5  1  0.71914329  0.77765579  0.15710529  1
  Li  Li6  1  0.99849706  0.52123023  0.88894370  1
