# generated using pymatgen
data_LiF
_symmetry_space_group_name_H-M   'P 1'
_cell_length_a   12.48376019
_cell_length_b   12.48376019
_cell_length_c   8.41830950
_cell_angle_alpha   90.00000000
_cell_angle_beta   90.00000000
_cell_angle_gamma   90.00000000
_symmetry_Int_Tables_number   1
_chemical_formula_structural   LiF
_chemical_formula_sum   'Li33 F33'
_cell_volume   1311.94528578
_cell_formula_units_Z   33
loop_
 _symmetry_equiv_pos_site_id
 _symmetry_equiv_pos_as_xyz
  1  'x, y, z'
loop_
 _atom_site_type_symbol
 _atom_site_label
 _atom_site_symmetry_multiplicity
 _atom_site_fract_x
 _atom_site_fract_y
 _atom_site_fract_z
 _atom_site_occupancy
  F  F0  1  0.71706553  0.03662824  -0.00000000  1
  F  F1  1  0.28293447  0.96337176  0.00000000  1
  F  F2  1  0.96337176  0.71706553  0.00000000  1
  F  F3  1  0.03662824  0.28293447  0.00000000  1
  F  F4  1  0.28293447  0.03662824  0.00000000  1
  F  F5  1  0.71706553  0.96337176  0.00000000  1
  F  F6  1  0.03662824  0.71706553  0.00000000  1
  F  F7  1  0.96337176  0.28293447  -0.00000000  1
  F  F8  1  0.24278206  0.24278206  0.07890499  1
  F  F9  1  0.75721794  0.75721794  0.07890499  1
  F  F10  1  0.75721794  0.24278206  0.07890499  1
  F  F11  1  0.24278206  0.75721794  0.07890499  1
  F  F12  1  0.75721794  0.24278206  0.92109501  1
  F  F13  1  0.24278206  0.75721794  0.92109501  1
  F  F14  1  0.24278206  0.24278206  0.92109501  1
  F  F15  1  0.75721794  0.75721794  0.92109501  1
  F  F16  1  0.41323106  0.50000000  0.81229036  1
  F  F17  1  0.58676894  0.50000000  0.81229036  1
  F  F18  1  0.50000000  0.41323106  0.81229036  1
  F  F19  1  0.50000000  0.58676894  0.81229036  1
  F  F20  1  0.58676894  0.50000000  0.18770964  1
  F  F21  1  0.41323106  0.50000000  0.18770964  1
  F  F22  1  0.50000000  0.41323106  0.18770964  1
  F  F23  1  0.50000000  0.58676894  0.18770964  1
  F  F24  1  0.15074512  0.00000000  0.50000000  1
  F  F25  1  0.84925488  0.00000000  0.50000000  1
  F  F26  1  0.00000000  0.15074512  0.50000000  1
  F  F27  1  0.00000000  0.84925488  0.50000000  1
  F  F28  1  0.00000000  0.00000000  0.50000000  1
  F  F29  1  0.88699660  0.88699660  0.00000000  1
  F  F30  1  0.11300340  0.11300340  0.00000000  1
  F  F31  1  0.11300340  0.88699660  0.00000000  1
  F  F32  1  0.88699660  0.11300340  0.00000000  1
  Li  Li33  1  0.34281603  0.34281603  0.91113800  1
  Li  Li34  1  -0.34281603  -0.34281603  0.91113800  1
  Li  Li35  1  -0.34281603  0.34281603  0.91113800  1
  Li  Li36  1  0.34281603  -0.34281603  0.91113800  1
  Li  Li37  1  -0.34281603  0.34281603  -0.91113800  1
  Li  Li38  1  0.34281603  -0.34281603  -0.91113800  1
  Li  Li39  1  0.34281603  0.34281603  -0.91113800  1
  Li  Li40  1  -0.34281603  -0.34281603  -0.91113800  1
  Li  Li41  1  0.42806123  0.89483021  0.00000000  1
  Li  Li42  1  0.57193877  0.10516979  -0.00000000  1
  Li  Li43  1  0.10516979  0.42806123  0.00000000  1
  Li  Li44  1  0.89483021  0.57193877  0.00000000  1
  Li  Li45  1  0.57193877  0.89483021  0.00000000  1
  Li  Li46  1  0.42806123  0.10516979  0.00000000  1
  Li  Li47  1  0.89483021  0.42806123  0.00000000  1
  Li  Li48  1  0.10516979  0.57193877  -0.00000000  1
  Li  Li49  1  0.00000000  0.50000000  0.50000000  1
  Li  Li50  1  0.50000000  0.00000000  0.50000000  1
  Li  Li51  1  0.79841449  0.79841449  0.00000000  1
  Li  Li52  1  0.20158551  0.20158551  0.00000000  1
  Li  Li53  1  0.20158551  0.79841449  0.00000000  1
  Li  Li54  1  0.79841449  0.20158551  0.00000000  1
  Li  Li55  1  0.81097154  0.50000000  -0.00000000  1
  Li  Li56  1  0.18902846  0.50000000  0.00000000  1
  Li  Li57  1  0.50000000  0.81097154  0.00000000  1
  Li  Li58  1  0.50000000  0.18902846  0.00000000  1
  Li  Li59  1  0.00000000  0.00000000  0.00000000  1
  Li  Li60  1  0.74116064  0.50000000  0.50000000  1
  Li  Li61  1  0.25883936  0.50000000  0.50000000  1
  Li  Li62  1  0.50000000  0.74116064  0.50000000  1
  Li  Li63  1  0.50000000  0.25883936  0.50000000  1
  Li  Li64  1  0.00000000  0.50000000  0.00000000  1
  Li  Li65  1  0.50000000  0.00000000  0.00000000  1
