# generated using pymatgen
data_Li2Y2As4P3
_symmetry_space_group_name_H-M   'P 1'
_cell_length_a   4.50509780
_cell_length_b   4.68976783
_cell_length_c   6.82537651
_cell_angle_alpha   95.70450999
_cell_angle_beta   102.42323680
_cell_angle_gamma   112.91274939
_symmetry_Int_Tables_number   1
_chemical_formula_structural   Li2Y2As4P3
_chemical_formula_sum   'Li2 Y2 As4 P3'
_cell_volume   127.00012406
_cell_formula_units_Z   1
loop_
 _symmetry_equiv_pos_site_id
 _symmetry_equiv_pos_as_xyz
  1  'x, y, z'
loop_
 _atom_site_type_symbol
 _atom_site_label
 _atom_site_symmetry_multiplicity
 _atom_site_fract_x
 _atom_site_fract_y
 _atom_site_fract_z
 _atom_site_occupancy
  P  P0  1  0.00000000  0.00000000  0.00000000  1
  P  P1  1  0.33300000  0.66700000  0.25000000  1
  P  P2  1  0.66700000  0.33300000  0.50000000  1
  As  As3  1  0.00000000  0.00000000  0.75000000  1
  As  As4  1  0.03264034  0.24087315  0.04622607  1
  As  As5  1  0.18136582  0.20001381  0.99954396  1
  As  As6  1  0.90436169  0.76186625  0.43600885  1
  Li  Li7  1  0.10467595  0.59597106  0.00084065  1
  Li  Li8  1  0.61826495  0.90799511  0.56106386  1
  Y  Y9  1  0.48682374  0.72479082  0.22630956  1
  Y  Y10  1  0.23441495  0.66787622  0.10356271  1
