# generated using pymatgen
data_Li2Ca3F8
_symmetry_space_group_name_H-M   'P 1'
_cell_length_a   10.35734531
_cell_length_b   10.35734531
_cell_length_c   19.69550413
_cell_angle_alpha   90.00000000
_cell_angle_beta   90.00000000
_cell_angle_gamma   90.00000000
_symmetry_Int_Tables_number   1
_chemical_formula_structural   Li2Ca3F8
_chemical_formula_sum   'Li16 Ca24 F64'
_cell_volume   2112.82736377
_cell_formula_units_Z   8
loop_
 _symmetry_equiv_pos_site_id
 _symmetry_equiv_pos_as_xyz
  1  'x, y, z'
loop_
 _atom_site_type_symbol
 _atom_site_label
 _atom_site_symmetry_multiplicity
 _atom_site_fract_x
 _atom_site_fract_y
 _atom_site_fract_z
 _atom_site_occupancy
  Ca  Ca0  1  0.12882934  0.37882934  0.12500000  1
  Ca  Ca1  1  0.37117066  0.62117066  0.62500000  1
  Ca  Ca2  1  0.87117066  0.87882934  0.37500000  1
  Ca  Ca3  1  0.62882934  0.12117066  0.87500000  1
  Ca  Ca4  1  0.87117066  0.62117066  0.87500000  1
  Ca  Ca5  1  0.62882934  0.37882934  0.37500000  1
  Ca  Ca6  1  0.12882934  0.12117066  0.62500000  1
  Ca  Ca7  1  0.37117066  0.87882934  0.12500000  1
  Ca  Ca8  1  0.62882934  0.87882934  0.62500000  1
  Ca  Ca9  1  0.87117066  0.12117066  0.12500000  1
  Ca  Ca10  1  0.37117066  0.37882934  0.87500000  1
  Ca  Ca11  1  0.12882934  0.62117066  0.37500000  1
  Ca  Ca12  1  0.37117066  0.12117066  0.37500000  1
  Ca  Ca13  1  0.12882934  0.87882934  0.87500000  1
  Ca  Ca14  1  0.62882934  0.62117066  0.12500000  1
  Ca  Ca15  1  0.87117066  0.37882934  0.62500000  1
  Ca  Ca16  1  0.00000000  0.25000000  0.37500000  1
  Ca  Ca17  1  0.00000000  0.75000000  0.62500000  1
  Ca  Ca18  1  0.50000000  0.25000000  0.62500000  1
  Ca  Ca19  1  0.50000000  0.75000000  0.37500000  1
  Ca  Ca20  1  0.50000000  0.75000000  0.87500000  1
  Ca  Ca21  1  0.50000000  0.25000000  0.12500000  1
  Ca  Ca22  1  0.00000000  0.75000000  0.12500000  1
  Ca  Ca23  1  0.00000000  0.25000000  0.87500000  1
  F  F24  1  0.10047088  0.88376349  0.19883832  1
  F  F25  1  0.39952912  -0.88376349  0.69883832  1
  F  F26  1  -0.63376349  0.85047088  0.44883832  1
  F  F27  1  1.13376349  0.14952912  0.94883832  1
  F  F28  1  0.39952912  0.88376349  -0.19883832  1
  F  F29  1  0.10047088  -0.88376349  0.30116168  1
  F  F30  1  1.13376349  0.85047088  0.55116168  1
  F  F31  1  -0.63376349  0.14952912  0.05116168  1
  F  F32  1  -0.10047088  -0.88376349  -0.19883832  1
  F  F33  1  0.60047088  0.88376349  0.30116168  1
  F  F34  1  1.63376349  0.14952912  0.55116168  1
  F  F35  1  -0.13376349  0.85047088  0.05116168  1
  F  F36  1  0.60047088  -0.88376349  0.19883832  1
  F  F37  1  -0.10047088  0.88376349  0.69883832  1
  F  F38  1  -0.13376349  0.14952912  0.44883832  1
  F  F39  1  1.63376349  0.85047088  0.94883832  1
  F  F40  1  0.60047088  1.38376349  0.69883832  1
  F  F41  1  0.89952912  -0.38376349  1.19883832  1
  F  F42  1  -0.13376349  1.35047088  0.94883832  1
  F  F43  1  1.63376349  0.64952912  1.44883832  1
  F  F44  1  0.89952912  1.38376349  0.30116168  1
  F  F45  1  0.60047088  -0.38376349  0.80116168  1
  F  F46  1  1.63376349  1.35047088  1.05116168  1
  F  F47  1  -0.13376349  0.64952912  0.55116168  1
  F  F48  1  0.39952912  -0.38376349  0.30116168  1
  F  F49  1  1.10047088  1.38376349  0.80116168  1
  F  F50  1  2.13376349  0.64952912  1.05116168  1
  F  F51  1  0.36623651  1.35047088  0.55116168  1
  F  F52  1  1.10047088  -0.38376349  0.69883832  1
  F  F53  1  0.39952912  1.38376349  1.19883832  1
  F  F54  1  0.36623651  0.64952912  0.94883832  1
  F  F55  1  2.13376349  1.35047088  1.44883832  1
  F  F56  1  0.38469823  0.28035910  0.23820358  1
  F  F57  1  0.11530177  0.71964090  0.73820358  1
  F  F58  1  0.96964090  0.13469823  0.48820358  1
  F  F59  1  0.53035910  0.86530177  0.98820358  1
  F  F60  1  0.11530177  0.28035910  0.76179642  1
  F  F61  1  0.38469823  0.71964090  0.26179642  1
  F  F62  1  0.53035910  0.13469823  0.51179642  1
  F  F63  1  0.96964090  0.86530177  0.01179642  1
  F  F64  1  0.61530177  0.71964090  0.76179642  1
  F  F65  1  0.88469823  0.28035910  0.26179642  1
  F  F66  1  0.03035910  0.86530177  0.51179642  1
  F  F67  1  0.46964090  0.13469823  0.01179642  1
  F  F68  1  0.88469823  0.71964090  0.23820358  1
  F  F69  1  0.61530177  0.28035910  0.73820358  1
  F  F70  1  0.46964090  0.86530177  0.48820358  1
  F  F71  1  0.03035910  0.13469823  0.98820358  1
  F  F72  1  0.88469823  0.78035910  0.73820358  1
  F  F73  1  0.61530177  0.21964090  0.23820358  1
  F  F74  1  0.46964090  0.63469823  0.98820358  1
  F  F75  1  0.03035910  0.36530177  0.48820358  1
  F  F76  1  0.61530177  0.78035910  0.26179642  1
  F  F77  1  0.88469823  0.21964090  0.76179642  1
  F  F78  1  0.03035910  0.63469823  0.01179642  1
  F  F79  1  0.46964090  0.36530177  0.51179642  1
  F  F80  1  0.11530177  0.21964090  0.26179642  1
  F  F81  1  0.38469823  0.78035910  0.76179642  1
  F  F82  1  0.53035910  0.36530177  0.01179642  1
  F  F83  1  0.96964090  0.63469823  0.51179642  1
  F  F84  1  0.38469823  0.21964090  0.73820358  1
  F  F85  1  0.11530177  0.78035910  0.23820358  1
  F  F86  1  0.96964090  0.36530177  0.98820358  1
  F  F87  1  0.53035910  0.63469823  0.48820358  1
  Li  Li88  1  0.00000000  0.25000000  0.54564226  1
  Li  Li89  1  0.00000000  0.75000000  0.79564226  1
  Li  Li90  1  0.50000000  0.25000000  0.45435774  1
  Li  Li91  1  0.50000000  0.75000000  0.20435774  1
  Li  Li92  1  0.00000000  0.75000000  0.45435774  1
  Li  Li93  1  0.00000000  0.25000000  0.20435774  1
  Li  Li94  1  0.50000000  0.75000000  0.54564226  1
  Li  Li95  1  0.50000000  0.25000000  0.79564226  1
  Li  Li96  1  0.50000000  0.75000000  0.04564226  1
  Li  Li97  1  0.50000000  0.25000000  0.29564226  1
  Li  Li98  1  0.00000000  0.75000000  0.95435774  1
  Li  Li99  1  0.00000000  0.25000000  0.70435774  1
  Li  Li100  1  0.50000000  0.25000000  0.95435774  1
  Li  Li101  1  0.50000000  0.75000000  0.70435774  1
  Li  Li102  1  0.00000000  0.25000000  0.04564226  1
  Li  Li103  1  0.00000000  0.75000000  0.29564226  1
