# generated using pymatgen
data_LiF
_symmetry_space_group_name_H-M   'P 1'
_cell_length_a   8.56447624
_cell_length_b   6.99286294
_cell_length_c   6.18866435
_cell_angle_alpha   90.00000000
_cell_angle_beta   90.00000000
_cell_angle_gamma   90.00000000
_symmetry_Int_Tables_number   1
_chemical_formula_structural   LiF
_chemical_formula_sum   'Li16 F16'
_cell_volume   370.64039865
_cell_formula_units_Z   16
loop_
 _symmetry_equiv_pos_site_id
 _symmetry_equiv_pos_as_xyz
  1  'x, y, z'
loop_
 _atom_site_type_symbol
 _atom_site_label
 _atom_site_symmetry_multiplicity
 _atom_site_fract_x
 _atom_site_fract_y
 _atom_site_fract_z
 _atom_site_occupancy
  F  F0  1  0.08766906  0.95661224  0.50000000  1
  F  F1  1  0.91233094  0.04338776  0.50000000  1
  F  F2  1  0.41233094  0.45661224  0.50000000  1
  F  F3  1  0.58766906  0.54338776  0.50000000  1
  F  F4  1  0.00000000  0.50000000  0.00000000  1
  F  F5  1  0.50000000  0.00000000  0.00000000  1
  F  F6  1  0.28131732  0.68137873  0.69931169  1
  F  F7  1  -0.28131732  -0.68137873  0.69931169  1
  F  F8  1  0.21868268  1.18137873  -0.69931169  1
  F  F9  1  0.78131732  -0.18137873  -0.69931169  1
  F  F10  1  -0.28131732  -0.68137873  -0.69931169  1
  F  F11  1  0.28131732  0.68137873  -0.69931169  1
  F  F12  1  0.78131732  -0.18137873  0.69931169  1
  F  F13  1  0.21868268  1.18137873  0.69931169  1
  F  F14  1  0.00000000  0.50000000  0.50000000  1
  F  F15  1  0.50000000  0.00000000  0.50000000  1
  Li  Li16  1  0.31600826  0.96292248  0.00000000  1
  Li  Li17  1  0.68399174  0.03707752  0.00000000  1
  Li  Li18  1  0.18399174  0.46292248  0.00000000  1
  Li  Li19  1  0.81600826  0.53707752  0.00000000  1
  Li  Li20  1  0.00118180  0.72839856  0.30200558  1
  Li  Li21  1  0.99881820  0.27160144  0.30200558  1
  Li  Li22  1  0.49881820  0.22839856  0.69799442  1
  Li  Li23  1  0.50118180  0.77160144  0.69799442  1
  Li  Li24  1  0.99881820  0.27160144  0.69799442  1
  Li  Li25  1  0.00118180  0.72839856  0.69799442  1
  Li  Li26  1  0.50118180  0.77160144  0.30200558  1
  Li  Li27  1  0.49881820  0.22839856  0.30200558  1
  Li  Li28  1  0.13205382  0.65463437  0.00000000  1
  Li  Li29  1  0.86794618  0.34536563  0.00000000  1
  Li  Li30  1  0.36794618  0.15463437  -0.00000000  1
  Li  Li31  1  0.63205382  0.84536563  0.00000000  1
