# generated using pymatgen
data_LiF
_symmetry_space_group_name_H-M   'P 1'
_cell_length_a   9.09926760
_cell_length_b   9.09926760
_cell_length_c   11.74897062
_cell_angle_alpha   90.00000000
_cell_angle_beta   90.00000000
_cell_angle_gamma   120.00000000
_symmetry_Int_Tables_number   1
_chemical_formula_structural   LiF
_chemical_formula_sum   'Li39 F39'
_cell_volume   842.44842793
_cell_formula_units_Z   39
loop_
 _symmetry_equiv_pos_site_id
 _symmetry_equiv_pos_as_xyz
  1  'x, y, z'
loop_
 _atom_site_type_symbol
 _atom_site_label
 _atom_site_symmetry_multiplicity
 _atom_site_fract_x
 _atom_site_fract_y
 _atom_site_fract_z
 _atom_site_occupancy
  F  F0  1  0.21746104  0.78253896  0.00000000  1
  F  F1  1  0.21746104  0.43492208  0.00000000  1
  F  F2  1  0.56507792  0.78253896  0.00000000  1
  F  F3  1  0.24767545  0.64143144  0.75636532  1
  F  F4  1  0.35856856  0.60624401  0.75636532  1
  F  F5  1  0.39375599  0.75232455  0.75636532  1
  F  F6  1  0.35856856  0.75232455  0.24363468  1
  F  F7  1  0.39375599  0.64143144  0.24363468  1
  F  F8  1  0.24767545  0.60624401  0.24363468  1
  F  F9  1  0.39012923  0.82600686  0.77374152  1
  F  F10  1  0.17399314  0.56412237  0.77374152  1
  F  F11  1  0.43587763  0.60987077  0.77374152  1
  F  F12  1  0.17399314  0.60987077  0.22625848  1
  F  F13  1  0.43587763  0.82600686  0.22625848  1
  F  F14  1  0.39012923  0.56412237  0.22625848  1
  F  F15  1  0.76922877  0.68654075  0.34004149  1
  F  F16  1  0.31345925  0.08268802  0.34004149  1
  F  F17  1  0.91731198  0.23077123  0.34004149  1
  F  F18  1  0.31345925  0.23077123  0.65995851  1
  F  F19  1  0.91731198  0.68654075  0.65995851  1
  F  F20  1  0.76922877  0.08268802  0.65995851  1
  F  F21  1  0.78974774  0.20135842  0.33894465  1
  F  F22  1  0.79864158  0.58838932  0.33894465  1
  F  F23  1  0.41161068  0.21025226  0.33894465  1
  F  F24  1  0.79864158  0.21025226  0.66105535  1
  F  F25  1  0.41161068  0.20135842  0.66105535  1
  F  F26  1  0.78974774  0.58838932  0.66105535  1
  F  F27  1  0.00000000  0.00000000  0.00000000  1
  F  F28  1  0.54035314  0.45964686  0.50000000  1
  F  F29  1  0.54035314  0.08070629  0.50000000  1
  F  F30  1  0.91929371  0.45964686  0.50000000  1
  F  F31  1  0.28355640  0.12833376  0.17072242  1
  F  F32  1  0.87166624  0.15522264  0.17072242  1
  F  F33  1  0.84477736  0.71644360  0.17072242  1
  F  F34  1  0.87166624  0.71644360  0.82927758  1
  F  F35  1  0.84477736  0.12833376  0.82927758  1
  F  F36  1  0.28355640  0.15522264  0.82927758  1
  F  F37  1  0.00000000  0.00000000  0.05157281  1
  F  F38  1  0.00000000  0.00000000  0.94842719  1
  Li  Li39  1  0.00000000  0.00000000  0.83757141  1
  Li  Li40  1  0.00000000  0.00000000  0.16242859  1
  Li  Li41  1  0.66666667  0.33333333  0.21229636  1
  Li  Li42  1  0.66666667  0.33333333  0.78770364  1
  Li  Li43  1  0.18482279  0.74618744  0.87770927  1
  Li  Li44  1  -0.74618744  -0.56136465  0.87770927  1
  Li  Li45  1  0.56136465  -0.18482279  0.87770927  1
  Li  Li46  1  -0.74618744  -0.18482279  -0.87770927  1
  Li  Li47  1  0.56136465  0.74618744  -0.87770927  1
  Li  Li48  1  0.18482279  -0.56136465  -0.87770927  1
  Li  Li49  1  0.00000000  0.00000000  0.50000000  1
  Li  Li50  1  0.33333333  0.66666667  0.00000000  1
  Li  Li51  1  0.89101593  0.10898407  -0.00000000  1
  Li  Li52  1  0.89101593  0.78203186  0.00000000  1
  Li  Li53  1  0.21796814  0.10898407  0.00000000  1
  Li  Li54  1  0.76744345  0.04623514  0.47949782  1
  Li  Li55  1  0.95376486  0.72120831  0.47949782  1
  Li  Li56  1  0.27879169  0.23255655  0.47949782  1
  Li  Li57  1  0.95376486  0.23255655  0.52050218  1
  Li  Li58  1  0.27879169  0.04623514  0.52050218  1
  Li  Li59  1  0.76744345  0.72120831  0.52050218  1
  Li  Li60  1  0.51153087  0.39565769  0.18295360  1
  Li  Li61  1  0.60434231  0.11587318  0.18295360  1
  Li  Li62  1  0.88412682  0.48846913  0.18295360  1
  Li  Li63  1  0.60434231  0.48846913  0.81704640  1
  Li  Li64  1  0.88412682  0.39565769  0.81704640  1
  Li  Li65  1  0.51153087  0.11587318  0.81704640  1
  Li  Li66  1  0.12787398  0.92615905  0.06137169  1
  Li  Li67  1  0.07384095  0.20171493  0.06137169  1
  Li  Li68  1  0.79828507  0.87212602  0.06137169  1
  Li  Li69  1  0.07384095  0.87212602  0.93862831  1
  Li  Li70  1  0.79828507  0.92615905  0.93862831  1
  Li  Li71  1  0.12787398  0.20171493  0.93862831  1
  Li  Li72  1  0.07102916  0.57910691  0.32388036  1
  Li  Li73  1  0.42089309  0.49192224  0.32388036  1
  Li  Li74  1  0.50807776  0.92897084  0.32388036  1
  Li  Li75  1  0.42089309  0.92897084  0.67611964  1
  Li  Li76  1  0.50807776  0.57910691  0.67611964  1
  Li  Li77  1  0.07102916  0.49192224  0.67611964  1
