# generated using pymatgen
data_Li3Y2P3Se2
_symmetry_space_group_name_H-M   'P 1'
_cell_length_a   6.40570147
_cell_length_b   6.77393726
_cell_length_c   7.71493356
_cell_angle_alpha   92.26873125
_cell_angle_beta   94.94082501
_cell_angle_gamma   99.11259176
_symmetry_Int_Tables_number   1
_chemical_formula_structural   Li3Y2P3Se2
_chemical_formula_sum   'Li3 Y2 P3 Se2'
_cell_volume   328.82930338
_cell_formula_units_Z   1
loop_
 _symmetry_equiv_pos_site_id
 _symmetry_equiv_pos_as_xyz
  1  'x, y, z'
loop_
 _atom_site_type_symbol
 _atom_site_label
 _atom_site_symmetry_multiplicity
 _atom_site_fract_x
 _atom_site_fract_y
 _atom_site_fract_z
 _atom_site_occupancy
  Se  Se0  1  0.00000000  0.00000000  0.00000000  1
  Se  Se1  1  0.50000000  0.50000000  0.50000000  1
  P  P2  1  0.25000000  0.25000000  0.25000000  1
  P  P3  1  0.75000000  0.25000000  0.00000000  1
  P  P4  1  0.25000000  0.75000000  0.50000000  1
  Li  Li5  1  0.84231487  0.48862704  0.09034731  1
  Li  Li6  1  0.01509367  0.03007755  0.67853843  1
  Li  Li7  1  0.29648939  0.53231712  0.72130240  1
  Y  Y8  1  0.37056515  0.70943837  0.58264967  1
  Y  Y9  1  0.78325525  0.69211573  0.01008186  1
