# generated using pymatgen
data_LiF
_symmetry_space_group_name_H-M   'P 1'
_cell_length_a   11.19159329
_cell_length_b   11.19159329
_cell_length_c   7.52087483
_cell_angle_alpha   90.00000000
_cell_angle_beta   90.00000000
_cell_angle_gamma   120.00000000
_symmetry_Int_Tables_number   1
_chemical_formula_structural   LiF
_chemical_formula_sum   'Li36 F36'
_cell_volume   815.79836543
_cell_formula_units_Z   36
loop_
 _symmetry_equiv_pos_site_id
 _symmetry_equiv_pos_as_xyz
  1  'x, y, z'
loop_
 _atom_site_type_symbol
 _atom_site_label
 _atom_site_symmetry_multiplicity
 _atom_site_fract_x
 _atom_site_fract_y
 _atom_site_fract_z
 _atom_site_occupancy
  F  F0  1  0.00000000  0.00000000  0.58741783  1
  F  F1  1  0.00000000  0.00000000  0.91258217  1
  F  F2  1  0.00000000  0.00000000  0.41258217  1
  F  F3  1  0.00000000  0.00000000  0.08741783  1
  F  F4  1  0.66666667  0.33333333  0.92075117  1
  F  F5  1  0.66666667  0.33333333  0.24591550  1
  F  F6  1  0.66666667  0.33333333  0.74591550  1
  F  F7  1  0.66666667  0.33333333  0.42075117  1
  F  F8  1  0.33333333  0.66666667  0.25408450  1
  F  F9  1  0.33333333  0.66666667  0.57924883  1
  F  F10  1  0.33333333  0.66666667  0.07924883  1
  F  F11  1  0.33333333  0.66666667  0.75408450  1
  F  F12  1  0.05604815  0.00000000  0.25000000  1
  F  F13  1  0.00000000  0.05604815  0.25000000  1
  F  F14  1  -0.05604815  -0.05604815  0.25000000  1
  F  F15  1  -0.05604815  0.00000000  0.75000000  1
  F  F16  1  0.00000000  -0.05604815  0.75000000  1
  F  F17  1  0.05604815  0.05604815  0.75000000  1
  F  F18  1  0.72271482  0.33333333  0.58333333  1
  F  F19  1  0.66666667  0.38938149  0.58333333  1
  F  F20  1  0.61061851  0.27728518  0.58333333  1
  F  F21  1  0.61061851  0.33333333  1.08333333  1
  F  F22  1  0.66666667  0.27728518  1.08333333  1
  F  F23  1  0.72271482  0.38938149  1.08333333  1
  F  F24  1  0.38938149  0.66666667  0.91666667  1
  F  F25  1  0.33333333  0.72271482  0.91666667  1
  F  F26  1  0.27728518  0.61061851  0.91666667  1
  F  F27  1  0.27728518  0.66666667  1.41666667  1
  F  F28  1  0.33333333  0.61061851  1.41666667  1
  F  F29  1  0.38938149  0.72271482  1.41666667  1
  F  F30  1  0.00000000  0.00000000  0.25000000  1
  F  F31  1  0.00000000  0.00000000  0.75000000  1
  F  F32  1  0.66666667  0.33333333  0.58333333  1
  F  F33  1  0.66666667  0.33333333  0.08333333  1
  F  F34  1  0.33333333  0.66666667  0.91666667  1
  F  F35  1  0.33333333  0.66666667  0.41666667  1
  Li  Li36  1  0.38791457  0.00000000  0.25000000  1
  Li  Li37  1  0.00000000  0.38791457  0.25000000  1
  Li  Li38  1  0.61208543  0.61208543  0.25000000  1
  Li  Li39  1  0.61208543  0.00000000  0.75000000  1
  Li  Li40  1  0.00000000  0.61208543  0.75000000  1
  Li  Li41  1  0.38791457  0.38791457  0.75000000  1
  Li  Li42  1  0.05458124  0.33333333  0.58333333  1
  Li  Li43  1  0.66666667  0.72124790  0.58333333  1
  Li  Li44  1  0.27875210  0.94541876  0.58333333  1
  Li  Li45  1  0.27875210  0.33333333  0.08333333  1
  Li  Li46  1  0.66666667  0.94541876  0.08333333  1
  Li  Li47  1  0.05458124  0.72124790  0.08333333  1
  Li  Li48  1  0.72124790  0.66666667  0.91666667  1
  Li  Li49  1  0.33333333  0.05458124  0.91666667  1
  Li  Li50  1  0.94541876  0.27875210  0.91666667  1
  Li  Li51  1  0.94541876  0.66666667  0.41666667  1
  Li  Li52  1  0.33333333  0.27875210  0.41666667  1
  Li  Li53  1  0.72124790  0.05458124  0.41666667  1
  Li  Li54  1  0.88427471  0.00000000  0.25000000  1
  Li  Li55  1  0.00000000  0.88427471  0.25000000  1
  Li  Li56  1  0.11572529  0.11572529  0.25000000  1
  Li  Li57  1  0.11572529  0.00000000  0.75000000  1
  Li  Li58  1  0.00000000  0.11572529  0.75000000  1
  Li  Li59  1  0.88427471  0.88427471  0.75000000  1
  Li  Li60  1  0.55094138  0.33333333  0.58333333  1
  Li  Li61  1  0.66666667  0.21760805  0.58333333  1
  Li  Li62  1  0.78239195  0.44905862  0.58333333  1
  Li  Li63  1  0.78239195  0.33333333  0.08333333  1
  Li  Li64  1  0.66666667  0.44905862  0.08333333  1
  Li  Li65  1  0.55094138  0.21760805  0.08333333  1
  Li  Li66  1  0.21760805  0.66666667  0.91666667  1
  Li  Li67  1  0.33333333  0.55094138  0.91666667  1
  Li  Li68  1  0.44905862  0.78239195  0.91666667  1
  Li  Li69  1  0.44905862  0.66666667  0.41666667  1
  Li  Li70  1  0.33333333  0.78239195  0.41666667  1
  Li  Li71  1  0.21760805  0.55094138  0.41666667  1
