# generated using pymatgen
data_LiF
_symmetry_space_group_name_H-M   'P 1'
_cell_length_a   9.01516030
_cell_length_b   9.01516030
_cell_length_c   10.24970654
_cell_angle_alpha   90.00000000
_cell_angle_beta   90.00000000
_cell_angle_gamma   120.00000000
_symmetry_Int_Tables_number   1
_chemical_formula_structural   LiF
_chemical_formula_sum   'Li26 F26'
_cell_volume   721.42131467
_cell_formula_units_Z   26
loop_
 _symmetry_equiv_pos_site_id
 _symmetry_equiv_pos_as_xyz
  1  'x, y, z'
loop_
 _atom_site_type_symbol
 _atom_site_label
 _atom_site_symmetry_multiplicity
 _atom_site_fract_x
 _atom_site_fract_y
 _atom_site_fract_z
 _atom_site_occupancy
  F  F0  1  0.33704101  0.38587836  0.25000000  1
  F  F1  1  0.61412164  0.95116265  0.25000000  1
  F  F2  1  0.04883735  0.66295899  0.25000000  1
  F  F3  1  0.66295899  0.61412164  0.75000000  1
  F  F4  1  0.38587836  0.04883735  0.75000000  1
  F  F5  1  0.95116265  0.33704101  0.75000000  1
  F  F6  1  0.86872180  0.35055206  0.06429665  1
  F  F7  1  -0.35055206  0.51816975  0.06429665  1
  F  F8  1  -0.51816975  -0.86872180  0.06429665  1
  F  F9  1  -0.86872180  -0.35055206  0.56429665  1
  F  F10  1  0.35055206  -0.51816975  0.56429665  1
  F  F11  1  0.51816975  0.86872180  0.56429665  1
  F  F12  1  -0.86872180  -0.35055206  -0.06429665  1
  F  F13  1  0.35055206  -0.51816975  -0.06429665  1
  F  F14  1  0.51816975  0.86872180  -0.06429665  1
  F  F15  1  0.86872180  0.35055206  0.43570335  1
  F  F16  1  -0.35055206  0.51816975  0.43570335  1
  F  F17  1  -0.51816975  -0.86872180  0.43570335  1
  F  F18  1  0.50000000  -0.00000000  0.00000000  1
  F  F19  1  0.00000000  0.50000000  0.00000000  1
  F  F20  1  0.50000000  0.50000000  0.00000000  1
  F  F21  1  0.50000000  -0.00000000  0.50000000  1
  F  F22  1  0.00000000  0.50000000  0.50000000  1
  F  F23  1  0.50000000  0.50000000  0.50000000  1
  F  F24  1  0.00000000  0.00000000  0.00000000  1
  F  F25  1  0.00000000  0.00000000  0.50000000  1
  Li  Li26  1  0.66666667  0.33333333  0.25000000  1
  Li  Li27  1  0.33333333  0.66666667  0.75000000  1
  Li  Li28  1  0.92935289  0.14404170  0.65878243  1
  Li  Li29  1  0.85595830  0.78531119  0.65878243  1
  Li  Li30  1  0.21468881  0.07064711  0.65878243  1
  Li  Li31  1  0.07064711  0.85595830  0.15878243  1
  Li  Li32  1  0.14404170  0.21468881  0.15878243  1
  Li  Li33  1  0.78531119  0.92935289  0.15878243  1
  Li  Li34  1  0.07064711  0.85595830  0.34121757  1
  Li  Li35  1  0.14404170  0.21468881  0.34121757  1
  Li  Li36  1  0.78531119  0.92935289  0.34121757  1
  Li  Li37  1  0.92935289  0.14404170  0.84121757  1
  Li  Li38  1  0.85595830  0.78531119  0.84121757  1
  Li  Li39  1  0.21468881  0.07064711  0.84121757  1
  Li  Li40  1  0.33333333  0.66666667  0.25000000  1
  Li  Li41  1  0.66666667  0.33333333  0.75000000  1
  Li  Li42  1  0.67700028  0.18423919  0.25000000  1
  Li  Li43  1  0.81576081  0.49276109  0.25000000  1
  Li  Li44  1  0.50723891  0.32299972  0.25000000  1
  Li  Li45  1  0.32299972  0.81576081  0.75000000  1
  Li  Li46  1  0.18423919  0.50723891  0.75000000  1
  Li  Li47  1  0.49276109  0.67700028  0.75000000  1
  Li  Li48  1  0.00000000  0.00000000  0.34125045  1
  Li  Li49  1  0.00000000  0.00000000  0.84125045  1
  Li  Li50  1  0.00000000  0.00000000  0.65874955  1
  Li  Li51  1  0.00000000  0.00000000  0.15874955  1
