# generated using pymatgen
data_LiF
_symmetry_space_group_name_H-M   'P 1'
_cell_length_a   5.14760242
_cell_length_b   5.90852108
_cell_length_c   12.47409763
_cell_angle_alpha   90.00000000
_cell_angle_beta   90.00000000
_cell_angle_gamma   90.00000000
_symmetry_Int_Tables_number   1
_chemical_formula_structural   LiF
_chemical_formula_sum   'Li26 F26'
_cell_volume   379.39615442
_cell_formula_units_Z   26
loop_
 _symmetry_equiv_pos_site_id
 _symmetry_equiv_pos_as_xyz
  1  'x, y, z'
loop_
 _atom_site_type_symbol
 _atom_site_label
 _atom_site_symmetry_multiplicity
 _atom_site_fract_x
 _atom_site_fract_y
 _atom_site_fract_z
 _atom_site_occupancy
  F  F0  1  0.85481818  0.18138387  0.06727592  1
  F  F1  1  -0.85481818  -0.18138387  0.06727592  1
  F  F2  1  -0.35481818  0.68138387  -0.06727592  1
  F  F3  1  1.35481818  0.31861613  -0.06727592  1
  F  F4  1  -0.85481818  -0.18138387  -0.06727592  1
  F  F5  1  0.85481818  0.18138387  -0.06727592  1
  F  F6  1  1.35481818  0.31861613  0.06727592  1
  F  F7  1  -0.35481818  0.68138387  0.06727592  1
  F  F8  1  0.00000000  0.50000000  0.00000000  1
  F  F9  1  0.50000000  -0.00000000  -0.00000000  1
  F  F10  1  0.00000000  0.00000000  0.50000000  1
  F  F11  1  0.50000000  0.50000000  0.50000000  1
  F  F12  1  0.47036601  0.24602932  0.58435760  1
  F  F13  1  0.52963399  0.75397068  0.58435760  1
  F  F14  1  0.02963399  0.74602932  0.41564240  1
  F  F15  1  0.97036601  0.25397068  0.41564240  1
  F  F16  1  0.52963399  0.75397068  0.41564240  1
  F  F17  1  0.47036601  0.24602932  0.41564240  1
  F  F18  1  0.97036601  0.25397068  0.58435760  1
  F  F19  1  0.02963399  0.74602932  0.58435760  1
  F  F20  1  0.00000000  0.50000000  0.05059471  1
  F  F21  1  0.50000000  -0.00000000  0.94940529  1
  F  F22  1  0.00000000  0.50000000  0.94940529  1
  F  F23  1  0.50000000  -0.00000000  0.05059471  1
  F  F24  1  0.00000000  0.00000000  0.00000000  1
  F  F25  1  0.50000000  0.50000000  0.00000000  1
  Li  Li26  1  0.00000000  0.00000000  0.85608857  1
  Li  Li27  1  0.50000000  0.50000000  0.14391143  1
  Li  Li28  1  0.00000000  0.00000000  0.14391143  1
  Li  Li29  1  0.50000000  0.50000000  0.85608857  1
  Li  Li30  1  0.00000000  0.00000000  0.36180660  1
  Li  Li31  1  0.50000000  0.50000000  0.63819340  1
  Li  Li32  1  0.00000000  0.00000000  0.63819340  1
  Li  Li33  1  0.50000000  0.50000000  0.36180660  1
  Li  Li34  1  0.75295091  0.72868001  0.71950374  1
  Li  Li35  1  0.24704909  0.27131999  0.71950374  1
  Li  Li36  1  0.74704909  0.22868001  0.28049626  1
  Li  Li37  1  0.25295091  0.77131999  0.28049626  1
  Li  Li38  1  0.24704909  0.27131999  0.28049626  1
  Li  Li39  1  0.75295091  0.72868001  0.28049626  1
  Li  Li40  1  0.25295091  0.77131999  0.71950374  1
  Li  Li41  1  0.74704909  0.22868001  0.71950374  1
  Li  Li42  1  0.99858468  0.26756876  0.16206193  1
  Li  Li43  1  0.00141532  0.73243124  0.16206193  1
  Li  Li44  1  0.50141532  0.76756876  0.83793807  1
  Li  Li45  1  0.49858468  0.23243124  0.83793807  1
  Li  Li46  1  0.00141532  0.73243124  0.83793807  1
  Li  Li47  1  0.99858468  0.26756876  0.83793807  1
  Li  Li48  1  0.49858468  0.23243124  0.16206193  1
  Li  Li49  1  0.50141532  0.76756876  0.16206193  1
  Li  Li50  1  0.00000000  0.50000000  0.50000000  1
  Li  Li51  1  0.50000000  -0.00000000  0.50000000  1
