# generated using pymatgen
data_LiF
_symmetry_space_group_name_H-M   'P 1'
_cell_length_a   11.54453305
_cell_length_b   6.74986943
_cell_length_c   11.39932552
_cell_angle_alpha   90.00000000
_cell_angle_beta   90.00000000
_cell_angle_gamma   90.00000000
_symmetry_Int_Tables_number   1
_chemical_formula_structural   LiF
_chemical_formula_sum   'Li26 F26'
_cell_volume   888.28207547
_cell_formula_units_Z   26
loop_
 _symmetry_equiv_pos_site_id
 _symmetry_equiv_pos_as_xyz
  1  'x, y, z'
loop_
 _atom_site_type_symbol
 _atom_site_label
 _atom_site_symmetry_multiplicity
 _atom_site_fract_x
 _atom_site_fract_y
 _atom_site_fract_z
 _atom_site_occupancy
  F  F0  1  0.85916698  0.87490246  0.08520444  1
  F  F1  1  0.14083302  0.12509754  0.08520444  1
  F  F2  1  0.64083302  0.37490246  0.41479556  1
  F  F3  1  0.35916698  0.62509754  0.41479556  1
  F  F4  1  0.14083302  0.12509754  0.91479556  1
  F  F5  1  0.85916698  0.87490246  0.91479556  1
  F  F6  1  0.35916698  0.62509754  0.58520444  1
  F  F7  1  0.64083302  0.37490246  0.58520444  1
  F  F8  1  0.66371729  0.57594061  0.00000000  1
  F  F9  1  0.33628271  0.42405939  0.00000000  1
  F  F10  1  0.83628271  0.07594061  0.50000000  1
  F  F11  1  0.16371729  0.92405939  0.50000000  1
  F  F12  1  0.00000000  0.50000000  0.09182975  1
  F  F13  1  0.50000000  0.00000000  0.40817025  1
  F  F14  1  0.00000000  0.50000000  0.90817025  1
  F  F15  1  0.50000000  0.00000000  0.59182975  1
  F  F16  1  0.75912319  0.76825790  0.93690340  1
  F  F17  1  0.24087681  0.23174210  0.93690340  1
  F  F18  1  0.74087681  0.26825790  0.56309660  1
  F  F19  1  0.25912319  0.73174210  0.56309660  1
  F  F20  1  0.24087681  0.23174210  0.06309660  1
  F  F21  1  0.75912319  0.76825790  0.06309660  1
  F  F22  1  0.25912319  0.73174210  0.43690340  1
  F  F23  1  0.74087681  0.26825790  0.43690340  1
  F  F24  1  0.00000000  0.00000000  0.50000000  1
  F  F25  1  0.50000000  0.50000000  0.00000000  1
  Li  Li26  1  0.40097195  0.77544775  0.75851180  1
  Li  Li27  1  -0.40097195  -0.77544775  0.75851180  1
  Li  Li28  1  0.09902805  1.27544775  -0.25851180  1
  Li  Li29  1  0.90097195  -0.27544775  -0.25851180  1
  Li  Li30  1  -0.40097195  -0.77544775  -0.75851180  1
  Li  Li31  1  0.40097195  0.77544775  -0.75851180  1
  Li  Li32  1  0.90097195  -0.27544775  1.25851180  1
  Li  Li33  1  0.09902805  1.27544775  1.25851180  1
  Li  Li34  1  0.00000000  0.50000000  0.00000000  1
  Li  Li35  1  0.50000000  0.00000000  0.50000000  1
  Li  Li36  1  0.08148431  0.34075216  0.41782076  1
  Li  Li37  1  0.91851569  0.65924784  0.41782076  1
  Li  Li38  1  0.41851569  0.84075216  0.08217924  1
  Li  Li39  1  0.58148431  0.15924784  0.08217924  1
  Li  Li40  1  0.91851569  0.65924784  0.58217924  1
  Li  Li41  1  0.08148431  0.34075216  0.58217924  1
  Li  Li42  1  0.58148431  0.15924784  0.91782076  1
  Li  Li43  1  0.41851569  0.84075216  0.91782076  1
  Li  Li44  1  0.26277173  0.70834499  0.16199286  1
  Li  Li45  1  0.73722827  0.29165501  0.16199286  1
  Li  Li46  1  0.23722827  0.20834499  0.33800714  1
  Li  Li47  1  0.76277173  0.79165501  0.33800714  1
  Li  Li48  1  0.73722827  0.29165501  0.83800714  1
  Li  Li49  1  0.26277173  0.70834499  0.83800714  1
  Li  Li50  1  0.76277173  0.79165501  0.66199286  1
  Li  Li51  1  0.23722827  0.20834499  0.66199286  1
