# generated using pymatgen
data_Li4TeF2
_symmetry_space_group_name_H-M   'P 1'
_cell_length_a   14.07990893
_cell_length_b   14.07990893
_cell_length_c   11.41027002
_cell_angle_alpha   90.00000000
_cell_angle_beta   90.00000000
_cell_angle_gamma   90.00000000
_symmetry_Int_Tables_number   1
_chemical_formula_structural   Li4TeF2
_chemical_formula_sum   'Li96 Te24 F48'
_cell_volume   2262.01569009
_cell_formula_units_Z   24
loop_
 _symmetry_equiv_pos_site_id
 _symmetry_equiv_pos_as_xyz
  1  'x, y, z'
loop_
 _atom_site_type_symbol
 _atom_site_label
 _atom_site_symmetry_multiplicity
 _atom_site_fract_x
 _atom_site_fract_y
 _atom_site_fract_z
 _atom_site_occupancy
  F  F0  1  0.01074519  0.00000000  0.25000000  1
  F  F1  1  0.48925481  0.00000000  0.75000000  1
  F  F2  1  0.25000000  0.76074519  0.50000000  1
  F  F3  1  0.25000000  0.23925481  0.00000000  1
  F  F4  1  0.98925481  0.00000000  0.75000000  1
  F  F5  1  0.51074519  0.00000000  0.25000000  1
  F  F6  1  0.75000000  0.23925481  0.50000000  1
  F  F7  1  0.75000000  0.76074519  0.00000000  1
  F  F8  1  0.51074519  0.50000000  0.75000000  1
  F  F9  1  0.98925481  0.50000000  0.25000000  1
  F  F10  1  0.75000000  0.26074519  0.00000000  1
  F  F11  1  0.75000000  0.73925481  0.50000000  1
  F  F12  1  0.48925481  0.50000000  0.25000000  1
  F  F13  1  0.01074519  0.50000000  0.75000000  1
  F  F14  1  0.25000000  0.73925481  0.00000000  1
  F  F15  1  0.25000000  0.26074519  0.50000000  1
  F  F16  1  0.64183482  0.11604546  0.03147434  1
  F  F17  1  -0.14183482  -0.11604546  0.53147434  1
  F  F18  1  0.13395454  1.39183482  0.28147434  1
  F  F19  1  0.36604546  -0.39183482  0.78147434  1
  F  F20  1  -0.14183482  0.11604546  -0.03147434  1
  F  F21  1  0.64183482  -0.11604546  0.46852566  1
  F  F22  1  0.36604546  1.39183482  0.71852566  1
  F  F23  1  0.13395454  -0.39183482  0.21852566  1
  F  F24  1  -0.64183482  -0.11604546  -0.03147434  1
  F  F25  1  1.14183482  0.11604546  0.46852566  1
  F  F26  1  0.86604546  -0.39183482  0.71852566  1
  F  F27  1  0.63395454  1.39183482  0.21852566  1
  F  F28  1  1.14183482  -0.11604546  0.03147434  1
  F  F29  1  -0.64183482  0.11604546  0.53147434  1
  F  F30  1  0.63395454  -0.39183482  0.28147434  1
  F  F31  1  0.86604546  1.39183482  0.78147434  1
  F  F32  1  1.14183482  0.61604546  0.53147434  1
  F  F33  1  0.35816518  0.38395454  1.03147434  1
  F  F34  1  0.63395454  1.89183482  0.78147434  1
  F  F35  1  0.86604546  0.10816518  1.28147434  1
  F  F36  1  0.35816518  0.61604546  0.46852566  1
  F  F37  1  1.14183482  0.38395454  0.96852566  1
  F  F38  1  0.86604546  1.89183482  1.21852566  1
  F  F39  1  0.63395454  0.10816518  0.71852566  1
  F  F40  1  -0.14183482  0.38395454  0.46852566  1
  F  F41  1  1.64183482  0.61604546  0.96852566  1
  F  F42  1  1.36604546  0.10816518  1.21852566  1
  F  F43  1  1.13395454  1.89183482  0.71852566  1
  F  F44  1  1.64183482  0.38395454  0.53147434  1
  F  F45  1  -0.14183482  0.61604546  1.03147434  1
  F  F46  1  1.13395454  0.10816518  0.78147434  1
  F  F47  1  1.36604546  1.89183482  1.28147434  1
  Li  Li48  1  0.22114857  0.00000000  0.25000000  1
  Li  Li49  1  0.27885143  0.00000000  0.75000000  1
  Li  Li50  1  0.25000000  0.97114857  0.50000000  1
  Li  Li51  1  0.25000000  0.02885143  0.00000000  1
  Li  Li52  1  0.77885143  -0.00000000  0.75000000  1
  Li  Li53  1  0.72114857  0.00000000  0.25000000  1
  Li  Li54  1  0.75000000  0.02885143  0.50000000  1
  Li  Li55  1  0.75000000  0.97114857  0.00000000  1
  Li  Li56  1  0.72114857  0.50000000  0.75000000  1
  Li  Li57  1  0.77885143  0.50000000  0.25000000  1
  Li  Li58  1  0.75000000  0.47114857  -0.00000000  1
  Li  Li59  1  0.75000000  0.52885143  0.50000000  1
  Li  Li60  1  0.27885143  0.50000000  0.25000000  1
  Li  Li61  1  0.22114857  0.50000000  0.75000000  1
  Li  Li62  1  0.25000000  0.52885143  0.00000000  1
  Li  Li63  1  0.25000000  0.47114857  0.50000000  1
  Li  Li64  1  0.59127673  0.95781206  0.01648050  1
  Li  Li65  1  0.90872327  0.04218794  0.51648050  1
  Li  Li66  1  0.29218794  0.34127673  0.26648050  1
  Li  Li67  1  0.20781206  0.65872327  0.76648050  1
  Li  Li68  1  0.90872327  0.95781206  0.98351950  1
  Li  Li69  1  0.59127673  0.04218794  0.48351950  1
  Li  Li70  1  0.20781206  0.34127673  0.73351950  1
  Li  Li71  1  0.29218794  0.65872327  0.23351950  1
  Li  Li72  1  0.40872327  0.04218794  0.98351950  1
  Li  Li73  1  0.09127673  0.95781206  0.48351950  1
  Li  Li74  1  0.70781206  0.65872327  0.73351950  1
  Li  Li75  1  0.79218794  0.34127673  0.23351950  1
  Li  Li76  1  0.09127673  0.04218794  0.01648050  1
  Li  Li77  1  0.40872327  0.95781206  0.51648050  1
  Li  Li78  1  0.79218794  0.65872327  0.26648050  1
  Li  Li79  1  0.70781206  0.34127673  0.76648050  1
  Li  Li80  1  0.09127673  0.45781206  0.51648050  1
  Li  Li81  1  0.40872327  0.54218794  0.01648050  1
  Li  Li82  1  0.79218794  0.84127673  0.76648050  1
  Li  Li83  1  0.70781206  0.15872327  0.26648050  1
  Li  Li84  1  0.40872327  0.45781206  0.48351950  1
  Li  Li85  1  0.09127673  0.54218794  0.98351950  1
  Li  Li86  1  0.70781206  0.84127673  0.23351950  1
  Li  Li87  1  0.79218794  0.15872327  0.73351950  1
  Li  Li88  1  0.90872327  0.54218794  0.48351950  1
  Li  Li89  1  0.59127673  0.45781206  0.98351950  1
  Li  Li90  1  0.20781206  0.15872327  0.23351950  1
  Li  Li91  1  0.29218794  0.84127673  0.73351950  1
  Li  Li92  1  0.59127673  0.54218794  0.51648050  1
  Li  Li93  1  0.90872327  0.45781206  0.01648050  1
  Li  Li94  1  0.29218794  0.15872327  0.76648050  1
  Li  Li95  1  0.20781206  0.84127673  0.26648050  1
  Li  Li96  1  0.93855138  0.57763757  0.11849172  1
  Li  Li97  1  0.56144862  0.42236243  0.61849172  1
  Li  Li98  1  0.67236243  0.68855138  0.36849172  1
  Li  Li99  1  0.82763757  0.31144862  0.86849172  1
  Li  Li100  1  0.56144862  0.57763757  0.88150828  1
  Li  Li101  1  0.93855138  0.42236243  0.38150828  1
  Li  Li102  1  0.82763757  0.68855138  0.63150828  1
  Li  Li103  1  0.67236243  0.31144862  0.13150828  1
  Li  Li104  1  0.06144862  0.42236243  0.88150828  1
  Li  Li105  1  0.43855138  0.57763757  0.38150828  1
  Li  Li106  1  0.32763757  0.31144862  0.63150828  1
  Li  Li107  1  0.17236243  0.68855138  0.13150828  1
  Li  Li108  1  0.43855138  0.42236243  0.11849172  1
  Li  Li109  1  0.06144862  0.57763757  0.61849172  1
  Li  Li110  1  0.17236243  0.31144862  0.36849172  1
  Li  Li111  1  0.32763757  0.68855138  0.86849172  1
  Li  Li112  1  0.43855138  0.07763757  0.61849172  1
  Li  Li113  1  0.06144862  0.92236243  0.11849172  1
  Li  Li114  1  0.17236243  0.18855138  0.86849172  1
  Li  Li115  1  0.32763757  0.81144862  0.36849172  1
  Li  Li116  1  0.06144862  0.07763757  0.38150828  1
  Li  Li117  1  0.43855138  0.92236243  0.88150828  1
  Li  Li118  1  0.32763757  0.18855138  0.13150828  1
  Li  Li119  1  0.17236243  0.81144862  0.63150828  1
  Li  Li120  1  0.56144862  0.92236243  0.38150828  1
  Li  Li121  1  0.93855138  0.07763757  0.88150828  1
  Li  Li122  1  0.82763757  0.81144862  0.13150828  1
  Li  Li123  1  0.67236243  0.18855138  0.63150828  1
  Li  Li124  1  0.93855138  0.92236243  0.61849172  1
  Li  Li125  1  0.56144862  0.07763757  0.11849172  1
  Li  Li126  1  0.67236243  0.81144862  0.86849172  1
  Li  Li127  1  0.82763757  0.18855138  0.36849172  1
  Li  Li128  1  0.36851741  0.00000000  0.25000000  1
  Li  Li129  1  0.13148259  0.00000000  0.75000000  1
  Li  Li130  1  0.25000000  0.11851741  0.50000000  1
  Li  Li131  1  0.25000000  0.88148259  0.00000000  1
  Li  Li132  1  0.63148259  0.00000000  0.75000000  1
  Li  Li133  1  0.86851741  0.00000000  0.25000000  1
  Li  Li134  1  0.75000000  0.88148259  0.50000000  1
  Li  Li135  1  0.75000000  0.11851741  -0.00000000  1
  Li  Li136  1  0.86851741  0.50000000  0.75000000  1
  Li  Li137  1  0.63148259  0.50000000  0.25000000  1
  Li  Li138  1  0.75000000  0.61851741  0.00000000  1
  Li  Li139  1  0.75000000  0.38148259  0.50000000  1
  Li  Li140  1  0.13148259  0.50000000  0.25000000  1
  Li  Li141  1  0.36851741  0.50000000  0.75000000  1
  Li  Li142  1  0.25000000  0.38148259  0.00000000  1
  Li  Li143  1  0.25000000  0.61851741  0.50000000  1
  Te  Te144  1  0.00000000  0.00000000  0.00000000  1
  Te  Te145  1  0.50000000  0.00000000  0.50000000  1
  Te  Te146  1  0.25000000  0.75000000  0.25000000  1
  Te  Te147  1  0.25000000  0.25000000  0.75000000  1
  Te  Te148  1  0.50000000  0.00000000  0.00000000  1
  Te  Te149  1  0.00000000  0.00000000  0.50000000  1
  Te  Te150  1  0.25000000  0.75000000  0.75000000  1
  Te  Te151  1  0.25000000  0.25000000  0.25000000  1
  Te  Te152  1  0.50000000  0.50000000  0.50000000  1
  Te  Te153  1  0.00000000  0.50000000  0.00000000  1
  Te  Te154  1  0.75000000  0.25000000  0.75000000  1
  Te  Te155  1  0.75000000  0.75000000  0.25000000  1
  Te  Te156  1  0.00000000  0.50000000  0.50000000  1
  Te  Te157  1  0.50000000  0.50000000  0.00000000  1
  Te  Te158  1  0.75000000  0.25000000  0.25000000  1
  Te  Te159  1  0.75000000  0.75000000  0.75000000  1
  Te  Te160  1  0.00000000  0.25000000  0.12500000  1
  Te  Te161  1  0.00000000  0.75000000  0.37500000  1
  Te  Te162  1  0.00000000  0.75000000  0.87500000  1
  Te  Te163  1  0.00000000  0.25000000  0.62500000  1
  Te  Te164  1  0.50000000  0.75000000  0.62500000  1
  Te  Te165  1  0.50000000  0.25000000  0.87500000  1
  Te  Te166  1  0.50000000  0.25000000  0.37500000  1
  Te  Te167  1  0.50000000  0.75000000  0.12500000  1
