# generated using pymatgen
data_Li3Y2(P2Se)2
_symmetry_space_group_name_H-M   'P 1'
_cell_length_a   4.46386534
_cell_length_b   4.76442417
_cell_length_c   6.97829373
_cell_angle_alpha   95.67292006
_cell_angle_beta   102.35444052
_cell_angle_gamma   112.78586523
_symmetry_Int_Tables_number   1
_chemical_formula_structural   Li3Y2(P2Se)2
_chemical_formula_sum   'Li3 Y2 P4 Se2'
_cell_volume   130.91272076
_cell_formula_units_Z   1
loop_
 _symmetry_equiv_pos_site_id
 _symmetry_equiv_pos_as_xyz
  1  'x, y, z'
loop_
 _atom_site_type_symbol
 _atom_site_label
 _atom_site_symmetry_multiplicity
 _atom_site_fract_x
 _atom_site_fract_y
 _atom_site_fract_z
 _atom_site_occupancy
  P  P0  1  0.00000000  0.00000000  0.00000000  1
  P  P1  1  0.33300000  0.66700000  0.25000000  1
  P  P2  1  0.66700000  0.33300000  0.50000000  1
  P  P3  1  0.00000000  0.00000000  0.75000000  1
  Se  Se4  1  0.37727975  0.41271418  0.09443458  1
  Se  Se5  1  0.69673821  0.36090324  0.52929769  1
  Li  Li6  1  0.47156871  0.56715538  0.94362999  1
  Li  Li7  1  0.37040583  0.22917070  0.62093209  1
  Li  Li8  1  0.50512155  0.34055095  0.17952228  1
  Y  Y9  1  0.26861167  0.48191869  0.15447471  1
  Y  Y10  1  0.12890865  0.74747694  0.87068225  1
