# generated using pymatgen
data_LiF
_symmetry_space_group_name_H-M   'P 1'
_cell_length_a   14.17551456
_cell_length_b   3.78362864
_cell_length_c   11.13241385
_cell_angle_alpha   90.00000000
_cell_angle_beta   90.00000000
_cell_angle_gamma   90.00000000
_symmetry_Int_Tables_number   1
_chemical_formula_structural   LiF
_chemical_formula_sum   'Li32 F32'
_cell_volume   597.08571272
_cell_formula_units_Z   32
loop_
 _symmetry_equiv_pos_site_id
 _symmetry_equiv_pos_as_xyz
  1  'x, y, z'
loop_
 _atom_site_type_symbol
 _atom_site_label
 _atom_site_symmetry_multiplicity
 _atom_site_fract_x
 _atom_site_fract_y
 _atom_site_fract_z
 _atom_site_occupancy
  F  F0  1  0.92470707  0.64505509  0.79301359  1
  F  F1  1  -0.92470707  -0.64505509  0.79301359  1
  F  F2  1  -0.42470707  1.14505509  -0.79301359  1
  F  F3  1  1.42470707  -0.14505509  -0.79301359  1
  F  F4  1  -0.92470707  -0.64505509  -0.79301359  1
  F  F5  1  0.92470707  0.64505509  -0.79301359  1
  F  F6  1  1.42470707  -0.14505509  0.79301359  1
  F  F7  1  -0.42470707  1.14505509  0.79301359  1
  F  F8  1  0.00000000  0.50000000  -0.00000000  1
  F  F9  1  0.50000000  0.00000000  0.00000000  1
  F  F10  1  0.10876786  0.88646909  0.04274339  1
  F  F11  1  0.89123214  0.11353091  0.04274339  1
  F  F12  1  0.39123214  0.38646909  0.95725661  1
  F  F13  1  0.60876786  0.61353091  0.95725661  1
  F  F14  1  0.89123214  0.11353091  0.95725661  1
  F  F15  1  0.10876786  0.88646909  0.95725661  1
  F  F16  1  0.60876786  0.61353091  0.04274339  1
  F  F17  1  0.39123214  0.38646909  0.04274339  1
  F  F18  1  0.00000000  0.00000000  0.12531866  1
  F  F19  1  0.50000000  0.50000000  0.87468134  1
  F  F20  1  0.00000000  0.00000000  0.87468134  1
  F  F21  1  0.50000000  0.50000000  0.12531866  1
  F  F22  1  0.42721506  0.53189266  0.10769780  1
  F  F23  1  0.57278494  0.46810734  0.10769780  1
  F  F24  1  0.07278494  0.03189266  0.89230220  1
  F  F25  1  0.92721506  0.96810734  0.89230220  1
  F  F26  1  0.57278494  0.46810734  0.89230220  1
  F  F27  1  0.42721506  0.53189266  0.89230220  1
  F  F28  1  0.92721506  0.96810734  0.10769780  1
  F  F29  1  0.07278494  0.03189266  0.10769780  1
  F  F30  1  0.00000000  0.00000000  0.50000000  1
  F  F31  1  0.50000000  0.50000000  0.50000000  1
  Li  Li32  1  0.00229966  0.23651667  0.70059856  1
  Li  Li33  1  0.99770034  0.76348333  0.70059856  1
  Li  Li34  1  0.49770034  0.73651667  0.29940144  1
  Li  Li35  1  0.50229966  0.26348333  0.29940144  1
  Li  Li36  1  0.99770034  0.76348333  0.29940144  1
  Li  Li37  1  0.00229966  0.23651667  0.29940144  1
  Li  Li38  1  0.50229966  0.26348333  0.70059856  1
  Li  Li39  1  0.49770034  0.73651667  0.70059856  1
  Li  Li40  1  0.32907963  0.97985208  0.67142130  1
  Li  Li41  1  0.67092037  0.02014792  0.67142130  1
  Li  Li42  1  0.17092037  0.47985208  0.32857870  1
  Li  Li43  1  0.82907963  0.52014792  0.32857870  1
  Li  Li44  1  0.67092037  0.02014792  0.32857870  1
  Li  Li45  1  0.32907963  0.97985208  0.32857870  1
  Li  Li46  1  0.82907963  0.52014792  0.67142130  1
  Li  Li47  1  0.17092037  0.47985208  0.67142130  1
  Li  Li48  1  0.64547374  0.61506392  0.36948489  1
  Li  Li49  1  0.35452626  0.38493608  0.36948489  1
  Li  Li50  1  0.85452626  0.11506392  0.63051511  1
  Li  Li51  1  0.14547374  0.88493608  0.63051511  1
  Li  Li52  1  0.35452626  0.38493608  0.63051511  1
  Li  Li53  1  0.64547374  0.61506392  0.63051511  1
  Li  Li54  1  0.14547374  0.88493608  0.36948489  1
  Li  Li55  1  0.85452626  0.11506392  0.36948489  1
  Li  Li56  1  0.78524401  0.56235450  0.18261441  1
  Li  Li57  1  0.21475599  0.43764550  0.18261441  1
  Li  Li58  1  0.71475599  0.06235450  0.81738559  1
  Li  Li59  1  0.28524401  0.93764550  0.81738559  1
  Li  Li60  1  0.21475599  0.43764550  0.81738559  1
  Li  Li61  1  0.78524401  0.56235450  0.81738559  1
  Li  Li62  1  0.28524401  0.93764550  0.18261441  1
  Li  Li63  1  0.71475599  0.06235450  0.18261441  1
