# generated using pymatgen
data_LiYMoAs2P
_symmetry_space_group_name_H-M   'P 1'
_cell_length_a   5.67736744
_cell_length_b   5.76768417
_cell_length_c   7.01763998
_cell_angle_alpha   93.17235429
_cell_angle_beta   97.14237872
_cell_angle_gamma   103.02420610
_symmetry_Int_Tables_number   1
_chemical_formula_structural   LiYMoAs2P
_chemical_formula_sum   'Li2 Y2 Mo2 As4 P2'
_cell_volume   221.31826323
_cell_formula_units_Z   2
loop_
 _symmetry_equiv_pos_site_id
 _symmetry_equiv_pos_as_xyz
  1  'x, y, z'
loop_
 _atom_site_type_symbol
 _atom_site_label
 _atom_site_symmetry_multiplicity
 _atom_site_fract_x
 _atom_site_fract_y
 _atom_site_fract_z
 _atom_site_occupancy
  P  P0  1  0.12500000  0.00000000  0.25000000  1
  P  P1  1  0.00000000  0.00000000  0.00000000  1
  Mo  Mo2  1  0.37500000  0.00000000  0.25000000  1
  Mo  Mo3  1  0.25000000  0.25000000  0.25000000  1
  As  As4  1  0.00000000  0.25000000  0.12500000  1
  As  As5  1  0.92519019  0.58506459  0.37368505  1
  As  As6  1  0.03052437  0.46964554  0.34986220  1
  As  As7  1  0.95597320  0.75478345  0.78025791  1
  Li  Li8  1  0.15073331  0.04784761  0.35656638  1
  Li  Li9  1  0.41498059  0.96366015  0.11600260  1
  Y  Y10  1  0.99979562  0.03263075  0.65520557  1
  Y  Y11  1  0.13341083  0.23131866  0.47600877  1
