# generated using pymatgen
data_LiF
_symmetry_space_group_name_H-M   'P 1'
_cell_length_a   16.56170021
_cell_length_b   11.72966150
_cell_length_c   12.11407337
_cell_angle_alpha   90.00000000
_cell_angle_beta   90.00000000
_cell_angle_gamma   90.00000000
_symmetry_Int_Tables_number   1
_chemical_formula_structural   LiF
_chemical_formula_sum   'Li76 F76'
_cell_volume   2353.31789779
_cell_formula_units_Z   76
loop_
 _symmetry_equiv_pos_site_id
 _symmetry_equiv_pos_as_xyz
  1  'x, y, z'
loop_
 _atom_site_type_symbol
 _atom_site_label
 _atom_site_symmetry_multiplicity
 _atom_site_fract_x
 _atom_site_fract_y
 _atom_site_fract_z
 _atom_site_occupancy
  F  F0  1  0.49925845  0.27699973  0.95164603  1
  F  F1  1  0.50074155  0.72300027  0.95164603  1
  F  F2  1  0.00074155  0.77699973  0.04835397  1
  F  F3  1  0.99925845  0.22300027  0.04835397  1
  F  F4  1  0.50074155  0.72300027  0.04835397  1
  F  F5  1  0.49925845  0.27699973  0.04835397  1
  F  F6  1  0.99925845  0.22300027  0.95164603  1
  F  F7  1  0.00074155  0.77699973  0.95164603  1
  F  F8  1  0.78957395  0.88846511  0.62584443  1
  F  F9  1  0.21042605  0.11153489  0.62584443  1
  F  F10  1  0.71042605  0.38846511  0.37415557  1
  F  F11  1  0.28957395  0.61153489  0.37415557  1
  F  F12  1  0.21042605  0.11153489  0.37415557  1
  F  F13  1  0.78957395  0.88846511  0.37415557  1
  F  F14  1  0.28957395  0.61153489  0.62584443  1
  F  F15  1  0.71042605  0.38846511  0.62584443  1
  F  F16  1  0.25007872  0.73604619  0.65101633  1
  F  F17  1  0.74992128  0.26395381  0.65101633  1
  F  F18  1  0.24992128  0.23604619  0.34898367  1
  F  F19  1  0.75007872  0.76395381  0.34898367  1
  F  F20  1  0.74992128  0.26395381  0.34898367  1
  F  F21  1  0.25007872  0.73604619  0.34898367  1
  F  F22  1  0.75007872  0.76395381  0.65101633  1
  F  F23  1  0.24992128  0.23604619  0.65101633  1
  F  F24  1  0.18323408  0.82789709  -0.00000000  1
  F  F25  1  0.81676592  0.17210291  -0.00000000  1
  F  F26  1  0.31676592  0.32789709  -0.00000000  1
  F  F27  1  0.68323408  0.67210291  0.00000000  1
  F  F28  1  0.01035140  0.83821881  0.65546403  1
  F  F29  1  0.98964860  0.16178119  0.65546403  1
  F  F30  1  0.48964860  0.33821881  0.34453597  1
  F  F31  1  0.51035140  0.66178119  0.34453597  1
  F  F32  1  0.98964860  0.16178119  0.34453597  1
  F  F33  1  0.01035140  0.83821881  0.34453597  1
  F  F34  1  0.51035140  0.66178119  0.65546403  1
  F  F35  1  0.48964860  0.33821881  0.65546403  1
  F  F36  1  0.76997665  0.41483128  0.50000000  1
  F  F37  1  0.23002335  0.58516872  0.50000000  1
  F  F38  1  0.73002335  0.91483128  0.50000000  1
  F  F39  1  0.26997665  0.08516872  0.50000000  1
  F  F40  1  0.00000000  0.50000000  0.91791096  1
  F  F41  1  0.50000000  0.00000000  0.08208904  1
  F  F42  1  0.00000000  0.50000000  0.08208904  1
  F  F43  1  0.50000000  0.00000000  0.91791096  1
  F  F44  1  0.43618441  0.70465669  0.96325369  1
  F  F45  1  0.56381559  0.29534331  0.96325369  1
  F  F46  1  0.06381559  0.20465669  0.03674631  1
  F  F47  1  0.93618441  0.79534331  0.03674631  1
  F  F48  1  0.56381559  0.29534331  0.03674631  1
  F  F49  1  0.43618441  0.70465669  0.03674631  1
  F  F50  1  0.93618441  0.79534331  0.96325369  1
  F  F51  1  0.06381559  0.20465669  0.96325369  1
  F  F52  1  0.70198065  0.29451469  0.02617639  1
  F  F53  1  0.29801935  0.70548531  0.02617639  1
  F  F54  1  0.79801935  0.79451469  0.97382361  1
  F  F55  1  0.20198065  0.20548531  0.97382361  1
  F  F56  1  0.29801935  0.70548531  0.97382361  1
  F  F57  1  0.70198065  0.29451469  0.97382361  1
  F  F58  1  0.20198065  0.20548531  0.02617639  1
  F  F59  1  0.79801935  0.79451469  0.02617639  1
  F  F60  1  0.30703911  0.91577611  -0.00000000  1
  F  F61  1  0.69296089  0.08422389  -0.00000000  1
  F  F62  1  0.19296089  0.41577611  0.00000000  1
  F  F63  1  0.80703911  0.58422389  0.00000000  1
  F  F64  1  0.64493618  0.24682300  0.03227642  1
  F  F65  1  0.35506382  0.75317700  0.03227642  1
  F  F66  1  0.85506382  0.74682300  0.96772358  1
  F  F67  1  0.14493618  0.25317700  0.96772358  1
  F  F68  1  0.35506382  0.75317700  0.96772358  1
  F  F69  1  0.64493618  0.24682300  0.96772358  1
  F  F70  1  0.14493618  0.25317700  0.03227642  1
  F  F71  1  0.85506382  0.74682300  0.03227642  1
  F  F72  1  0.00000000  0.00000000  0.89753007  1
  F  F73  1  0.50000000  0.50000000  0.10246993  1
  F  F74  1  0.00000000  0.00000000  0.10246993  1
  F  F75  1  0.50000000  0.50000000  0.89753007  1
  Li  Li76  1  0.00000000  0.00000000  0.00000000  1
  Li  Li77  1  0.50000000  0.50000000  -0.00000000  1
  Li  Li78  1  0.40666212  0.50527930  0.74661102  1
  Li  Li79  1  -0.40666212  -0.50527930  0.74661102  1
  Li  Li80  1  0.09333788  1.00527930  -0.74661102  1
  Li  Li81  1  0.90666212  -0.00527930  -0.74661102  1
  Li  Li82  1  -0.40666212  -0.50527930  -0.74661102  1
  Li  Li83  1  0.40666212  0.50527930  -0.74661102  1
  Li  Li84  1  0.90666212  -0.00527930  0.74661102  1
  Li  Li85  1  0.09333788  1.00527930  0.74661102  1
  Li  Li86  1  0.57796346  0.03437507  0.91743619  1
  Li  Li87  1  0.42203654  0.96562493  0.91743619  1
  Li  Li88  1  0.92203654  0.53437507  0.08256381  1
  Li  Li89  1  0.07796346  0.46562493  0.08256381  1
  Li  Li90  1  0.42203654  0.96562493  0.08256381  1
  Li  Li91  1  0.57796346  0.03437507  0.08256381  1
  Li  Li92  1  0.07796346  0.46562493  0.91743619  1
  Li  Li93  1  0.92203654  0.53437507  0.91743619  1
  Li  Li94  1  0.00000000  0.50000000  0.50000000  1
  Li  Li95  1  0.50000000  0.00000000  0.50000000  1
  Li  Li96  1  0.00000000  0.50000000  0.00000000  1
  Li  Li97  1  0.50000000  0.00000000  0.00000000  1
  Li  Li98  1  0.77393120  0.94835930  0.67644947  1
  Li  Li99  1  0.22606880  0.05164070  0.67644947  1
  Li  Li100  1  0.72606880  0.44835930  0.32355053  1
  Li  Li101  1  0.27393120  0.55164070  0.32355053  1
  Li  Li102  1  0.22606880  0.05164070  0.32355053  1
  Li  Li103  1  0.77393120  0.94835930  0.32355053  1
  Li  Li104  1  0.27393120  0.55164070  0.67644947  1
  Li  Li105  1  0.72606880  0.44835930  0.67644947  1
  Li  Li106  1  0.96929863  0.39702654  -0.00000000  1
  Li  Li107  1  0.03070137  0.60297346  0.00000000  1
  Li  Li108  1  0.53070137  0.89702654  -0.00000000  1
  Li  Li109  1  0.46929863  0.10297346  0.00000000  1
  Li  Li110  1  0.22867066  0.27039199  0.84732613  1
  Li  Li111  1  0.77132934  0.72960801  0.84732613  1
  Li  Li112  1  0.27132934  0.77039199  0.15267387  1
  Li  Li113  1  0.72867066  0.22960801  0.15267387  1
  Li  Li114  1  0.77132934  0.72960801  0.15267387  1
  Li  Li115  1  0.22867066  0.27039199  0.15267387  1
  Li  Li116  1  0.72867066  0.22960801  0.84732613  1
  Li  Li117  1  0.27132934  0.77039199  0.84732613  1
  Li  Li118  1  0.27278428  0.09550415  0.93499621  1
  Li  Li119  1  0.72721572  0.90449585  0.93499621  1
  Li  Li120  1  0.22721572  0.59550415  0.06500379  1
  Li  Li121  1  0.77278428  0.40449585  0.06500379  1
  Li  Li122  1  0.72721572  0.90449585  0.06500379  1
  Li  Li123  1  0.27278428  0.09550415  0.06500379  1
  Li  Li124  1  0.77278428  0.40449585  0.93499621  1
  Li  Li125  1  0.22721572  0.59550415  0.93499621  1
  Li  Li126  1  0.90682872  0.88700616  0.90450008  1
  Li  Li127  1  0.09317128  0.11299384  0.90450008  1
  Li  Li128  1  0.59317128  0.38700616  0.09549992  1
  Li  Li129  1  0.40682872  0.61299384  0.09549992  1
  Li  Li130  1  0.09317128  0.11299384  0.09549992  1
  Li  Li131  1  0.90682872  0.88700616  0.09549992  1
  Li  Li132  1  0.40682872  0.61299384  0.90450008  1
  Li  Li133  1  0.59317128  0.38700616  0.90450008  1
  Li  Li134  1  0.00000000  0.00000000  0.50000000  1
  Li  Li135  1  0.50000000  0.50000000  0.50000000  1
  Li  Li136  1  0.88655934  0.69835925  0.82765878  1
  Li  Li137  1  0.11344066  0.30164075  0.82765878  1
  Li  Li138  1  0.61344066  0.19835925  0.17234122  1
  Li  Li139  1  0.38655934  0.80164075  0.17234122  1
  Li  Li140  1  0.11344066  0.30164075  0.17234122  1
  Li  Li141  1  0.88655934  0.69835925  0.17234122  1
  Li  Li142  1  0.38655934  0.80164075  0.82765878  1
  Li  Li143  1  0.61344066  0.19835925  0.82765878  1
  Li  Li144  1  0.07833935  0.73449088  0.85786149  1
  Li  Li145  1  0.92166065  0.26550912  0.85786149  1
  Li  Li146  1  0.42166065  0.23449088  0.14213851  1
  Li  Li147  1  0.57833935  0.76550912  0.14213851  1
  Li  Li148  1  0.92166065  0.26550912  0.14213851  1
  Li  Li149  1  0.07833935  0.73449088  0.14213851  1
  Li  Li150  1  0.57833935  0.76550912  0.85786149  1
  Li  Li151  1  0.42166065  0.23449088  0.85786149  1
