# generated using pymatgen
data_Li2Si4Te3F12
_symmetry_space_group_name_H-M   'P 1'
_cell_length_a   13.67080880
_cell_length_b   14.27744639
_cell_length_c   7.41145681
_cell_angle_alpha   90.00000000
_cell_angle_beta   90.00000000
_cell_angle_gamma   90.00000000
_symmetry_Int_Tables_number   1
_chemical_formula_structural   Li2Si4Te3F12
_chemical_formula_sum   'Li8 Si16 Te12 F48'
_cell_volume   1446.59956290
_cell_formula_units_Z   4
loop_
 _symmetry_equiv_pos_site_id
 _symmetry_equiv_pos_as_xyz
  1  'x, y, z'
loop_
 _atom_site_type_symbol
 _atom_site_label
 _atom_site_symmetry_multiplicity
 _atom_site_fract_x
 _atom_site_fract_y
 _atom_site_fract_z
 _atom_site_occupancy
  F  F0  1  0.31226063  0.25257119  0.13727102  1
  F  F1  1  0.68773937  0.74742881  0.13727102  1
  F  F2  1  0.18773937  0.75257119  0.36272898  1
  F  F3  1  0.81226063  0.24742881  0.36272898  1
  F  F4  1  0.68773937  0.74742881  0.86272898  1
  F  F5  1  0.31226063  0.25257119  0.86272898  1
  F  F6  1  0.81226063  0.24742881  0.63727102  1
  F  F7  1  0.18773937  0.75257119  0.63727102  1
  F  F8  1  0.24671896  0.67744837  0.18043321  1
  F  F9  1  0.75328104  0.32255163  0.18043321  1
  F  F10  1  0.25328104  0.17744837  0.31956679  1
  F  F11  1  0.74671896  0.82255163  0.31956679  1
  F  F12  1  0.75328104  0.32255163  0.81956679  1
  F  F13  1  0.24671896  0.67744837  0.81956679  1
  F  F14  1  0.74671896  0.82255163  0.68043321  1
  F  F15  1  0.25328104  0.17744837  0.68043321  1
  F  F16  1  0.55646509  0.94061856  0.11554022  1
  F  F17  1  0.44353491  0.05938144  0.11554022  1
  F  F18  1  0.94353491  0.44061856  0.38445978  1
  F  F19  1  0.05646509  0.55938144  0.38445978  1
  F  F20  1  0.44353491  0.05938144  0.88445978  1
  F  F21  1  0.55646509  0.94061856  0.88445978  1
  F  F22  1  0.05646509  0.55938144  0.61554022  1
  F  F23  1  0.94353491  0.44061856  0.61554022  1
  F  F24  1  0.12648780  0.01563694  0.75549541  1
  F  F25  1  0.87351220  0.98436306  0.75549541  1
  F  F26  1  0.37351220  0.51563694  0.74450459  1
  F  F27  1  0.62648780  0.48436306  0.74450459  1
  F  F28  1  0.87351220  0.98436306  0.24450459  1
  F  F29  1  0.12648780  0.01563694  0.24450459  1
  F  F30  1  0.62648780  0.48436306  0.25549541  1
  F  F31  1  0.37351220  0.51563694  0.25549541  1
  F  F32  1  0.00000000  0.00000000  0.00000000  1
  F  F33  1  0.50000000  0.50000000  0.50000000  1
  F  F34  1  0.38454368  0.26833505  0.23221377  1
  F  F35  1  0.61545632  0.73166495  0.23221377  1
  F  F36  1  0.11545632  0.76833505  0.26778623  1
  F  F37  1  0.88454368  0.23166495  0.26778623  1
  F  F38  1  0.61545632  0.73166495  0.76778623  1
  F  F39  1  0.38454368  0.26833505  0.76778623  1
  F  F40  1  0.88454368  0.23166495  0.73221377  1
  F  F41  1  0.11545632  0.76833505  0.73221377  1
  F  F42  1  0.00000000  0.50000000  0.37617134  1
  F  F43  1  0.50000000  0.00000000  0.12382866  1
  F  F44  1  0.00000000  0.50000000  0.62382866  1
  F  F45  1  0.50000000  0.00000000  0.87617134  1
  F  F46  1  0.00000000  0.50000000  0.00000000  1
  F  F47  1  0.50000000  0.00000000  0.50000000  1
  Li  Li48  1  0.26834441  0.30266528  0.88958882  1
  Li  Li49  1  0.73165559  0.69733472  0.88958882  1
  Li  Li50  1  0.23165559  0.80266528  0.61041118  1
  Li  Li51  1  0.76834441  0.19733472  0.61041118  1
  Li  Li52  1  0.73165559  0.69733472  0.11041118  1
  Li  Li53  1  0.26834441  0.30266528  0.11041118  1
  Li  Li54  1  0.76834441  0.19733472  0.38958882  1
  Li  Li55  1  0.23165559  0.80266528  0.38958882  1
  Si  Si56  1  0.45392884  0.20271467  0.88087533  1
  Si  Si57  1  -0.45392884  -0.20271467  0.88087533  1
  Si  Si58  1  0.04607116  0.70271467  -0.38087533  1
  Si  Si59  1  0.95392884  0.29728533  -0.38087533  1
  Si  Si60  1  -0.45392884  -0.20271467  -0.88087533  1
  Si  Si61  1  0.45392884  0.20271467  -0.88087533  1
  Si  Si62  1  0.95392884  0.29728533  1.38087533  1
  Si  Si63  1  0.04607116  0.70271467  1.38087533  1
  Si  Si64  1  0.23270738  0.71548325  0.00000000  1
  Si  Si65  1  0.76729262  0.28451675  0.00000000  1
  Si  Si66  1  0.26729262  0.21548325  0.50000000  1
  Si  Si67  1  0.73270738  0.78451675  0.50000000  1
  Si  Si68  1  0.00000000  0.50000000  0.50000000  1
  Si  Si69  1  0.50000000  0.00000000  0.00000000  1
  Si  Si70  1  0.00000000  0.00000000  0.50000000  1
  Si  Si71  1  0.50000000  0.50000000  0.00000000  1
  Te  Te72  1  0.12294036  0.88536551  0.72326932  1
  Te  Te73  1  0.87705964  0.11463449  0.72326932  1
  Te  Te74  1  0.37705964  0.38536551  0.77673068  1
  Te  Te75  1  0.62294036  0.61463449  0.77673068  1
  Te  Te76  1  0.87705964  0.11463449  0.27673068  1
  Te  Te77  1  0.12294036  0.88536551  0.27673068  1
  Te  Te78  1  0.62294036  0.61463449  0.22326932  1
  Te  Te79  1  0.37705964  0.38536551  0.22326932  1
  Te  Te80  1  0.00000000  0.00000000  0.25736605  1
  Te  Te81  1  0.50000000  0.50000000  0.24263395  1
  Te  Te82  1  0.00000000  0.00000000  0.74263395  1
  Te  Te83  1  0.50000000  0.50000000  0.75736605  1
