# generated using pymatgen
data_LiF
_symmetry_space_group_name_H-M   'P 1'
_cell_length_a   10.95028894
_cell_length_b   7.26038715
_cell_length_c   19.26316912
_cell_angle_alpha   90.00000000
_cell_angle_beta   90.00000000
_cell_angle_gamma   90.00000000
_symmetry_Int_Tables_number   1
_chemical_formula_structural   LiF
_chemical_formula_sum   'Li56 F56'
_cell_volume   1531.48622900
_cell_formula_units_Z   56
loop_
 _symmetry_equiv_pos_site_id
 _symmetry_equiv_pos_as_xyz
  1  'x, y, z'
loop_
 _atom_site_type_symbol
 _atom_site_label
 _atom_site_symmetry_multiplicity
 _atom_site_fract_x
 _atom_site_fract_y
 _atom_site_fract_z
 _atom_site_occupancy
  F  F0  1  0.70999595  0.25000000  0.81771270  1
  F  F1  1  0.79000405  0.75000000  0.31771270  1
  F  F2  1  0.29000405  0.75000000  0.18228730  1
  F  F3  1  0.20999595  0.25000000  0.68228730  1
  F  F4  1  0.60707163  0.09163346  0.05354638  1
  F  F5  1  0.89292837  0.90836654  0.55354638  1
  F  F6  1  0.39292837  0.59163346  0.94645362  1
  F  F7  1  0.10707163  0.40836654  0.44645362  1
  F  F8  1  0.39292837  0.90836654  0.94645362  1
  F  F9  1  0.10707163  0.09163346  0.44645362  1
  F  F10  1  0.60707163  0.40836654  0.05354638  1
  F  F11  1  0.89292837  0.59163346  0.55354638  1
  F  F12  1  0.60679276  0.49539165  0.45266453  1
  F  F13  1  0.89320724  0.50460835  0.95266453  1
  F  F14  1  0.39320724  0.99539165  0.54733547  1
  F  F15  1  0.10679276  0.00460835  0.04733547  1
  F  F16  1  0.39320724  0.50460835  0.54733547  1
  F  F17  1  0.10679276  0.49539165  0.04733547  1
  F  F18  1  0.60679276  0.00460835  0.45266453  1
  F  F19  1  0.89320724  0.99539165  0.95266453  1
  F  F20  1  0.79238542  0.25000000  0.67079223  1
  F  F21  1  0.70761458  0.75000000  0.17079223  1
  F  F22  1  0.20761458  0.75000000  0.32920777  1
  F  F23  1  0.29238542  0.25000000  0.82920777  1
  F  F24  1  0.00000000  0.00000000  0.00000000  1
  F  F25  1  0.50000000  0.00000000  0.50000000  1
  F  F26  1  0.00000000  0.50000000  -0.00000000  1
  F  F27  1  0.50000000  0.50000000  0.50000000  1
  F  F28  1  0.53338832  0.63940523  0.79353654  1
  F  F29  1  0.96661168  0.36059477  0.29353654  1
  F  F30  1  0.46661168  0.13940523  0.20646346  1
  F  F31  1  0.03338832  0.86059477  0.70646346  1
  F  F32  1  0.46661168  0.36059477  0.20646346  1
  F  F33  1  0.03338832  0.63940523  0.70646346  1
  F  F34  1  0.53338832  0.86059477  0.79353654  1
  F  F35  1  0.96661168  0.13940523  0.29353654  1
  F  F36  1  0.79746673  0.43769816  0.97921133  1
  F  F37  1  0.70253327  0.56230184  0.47921133  1
  F  F38  1  0.20253327  0.93769816  0.02078867  1
  F  F39  1  0.29746673  0.06230184  0.52078867  1
  F  F40  1  0.20253327  0.56230184  0.02078867  1
  F  F41  1  0.29746673  0.43769816  0.52078867  1
  F  F42  1  0.79746673  0.06230184  0.97921133  1
  F  F43  1  0.70253327  0.93769816  0.47921133  1
  F  F44  1  0.44392935  0.25000000  0.95305326  1
  F  F45  1  0.05607065  0.75000000  0.45305326  1
  F  F46  1  0.55607065  0.75000000  0.04694674  1
  F  F47  1  0.94392935  0.25000000  0.54694674  1
  F  F48  1  0.15257722  0.01032708  0.12814327  1
  F  F49  1  0.34742278  0.98967292  0.62814327  1
  F  F50  1  0.84742278  0.51032708  0.87185673  1
  F  F51  1  0.65257722  0.48967292  0.37185673  1
  F  F52  1  0.84742278  0.98967292  0.87185673  1
  F  F53  1  0.65257722  0.01032708  0.37185673  1
  F  F54  1  0.15257722  0.48967292  0.12814327  1
  F  F55  1  0.34742278  0.51032708  0.62814327  1
  Li  Li56  1  0.40786861  0.60066406  0.48590949  1
  Li  Li57  1  0.09213139  -0.60066406  0.98590949  1
  Li  Li58  1  -0.40786861  1.10066406  -0.48590949  1
  Li  Li59  1  0.90786861  -0.10066406  0.01409051  1
  Li  Li60  1  -0.40786861  -0.60066406  -0.48590949  1
  Li  Li61  1  0.90786861  0.60066406  0.01409051  1
  Li  Li62  1  0.40786861  -0.10066406  0.48590949  1
  Li  Li63  1  0.09213139  1.10066406  0.98590949  1
  Li  Li64  1  0.50572435  0.44491432  0.30621992  1
  Li  Li65  1  0.99427565  0.55508568  0.80621992  1
  Li  Li66  1  0.49427565  0.94491432  0.69378008  1
  Li  Li67  1  0.00572435  0.05508568  0.19378008  1
  Li  Li68  1  0.49427565  0.55508568  0.69378008  1
  Li  Li69  1  0.00572435  0.44491432  0.19378008  1
  Li  Li70  1  0.50572435  0.05508568  0.30621992  1
  Li  Li71  1  0.99427565  0.94491432  0.80621992  1
  Li  Li72  1  0.79328958  0.25000000  0.48464502  1
  Li  Li73  1  0.70671042  0.75000000  0.98464502  1
  Li  Li74  1  0.20671042  0.75000000  0.51535498  1
  Li  Li75  1  0.29328958  0.25000000  0.01535498  1
  Li  Li76  1  0.28542504  0.25000000  0.16690383  1
  Li  Li77  1  0.21457496  0.75000000  0.66690383  1
  Li  Li78  1  0.71457496  0.75000000  0.83309617  1
  Li  Li79  1  0.78542504  0.25000000  0.33309617  1
  Li  Li80  1  0.58735675  0.25000000  0.70800016  1
  Li  Li81  1  0.91264325  0.75000000  0.20800016  1
  Li  Li82  1  0.41264325  0.75000000  0.29199984  1
  Li  Li83  1  0.08735675  0.25000000  0.79199984  1
  Li  Li84  1  0.09466420  0.14803515  0.52050962  1
  Li  Li85  1  0.40533580  0.85196485  0.02050962  1
  Li  Li86  1  0.90533580  0.64803515  0.47949038  1
  Li  Li87  1  0.59466420  0.35196485  0.97949038  1
  Li  Li88  1  0.90533580  0.85196485  0.47949038  1
  Li  Li89  1  0.59466420  0.14803515  0.97949038  1
  Li  Li90  1  0.09466420  0.35196485  0.52050962  1
  Li  Li91  1  0.40533580  0.64803515  0.02050962  1
  Li  Li92  1  0.00000000  0.00000000  0.50000000  1
  Li  Li93  1  0.50000000  0.00000000  0.00000000  1
  Li  Li94  1  0.00000000  0.50000000  0.50000000  1
  Li  Li95  1  0.50000000  0.50000000  0.00000000  1
  Li  Li96  1  0.44042200  0.58135270  0.62864330  1
  Li  Li97  1  0.05957800  0.41864730  0.12864330  1
  Li  Li98  1  0.55957800  0.08135270  0.37135670  1
  Li  Li99  1  0.94042200  0.91864730  0.87135670  1
  Li  Li100  1  0.55957800  0.41864730  0.37135670  1
  Li  Li101  1  0.94042200  0.58135270  0.87135670  1
  Li  Li102  1  0.44042200  0.91864730  0.62864330  1
  Li  Li103  1  0.05957800  0.08135270  0.12864330  1
  Li  Li104  1  0.95776217  0.25000000  0.46224625  1
  Li  Li105  1  0.54223783  0.75000000  0.96224625  1
  Li  Li106  1  0.04223783  0.75000000  0.53775375  1
  Li  Li107  1  0.45776217  0.25000000  0.03775375  1
  Li  Li108  1  0.20237889  0.25000000  0.94061467  1
  Li  Li109  1  0.29762111  0.75000000  0.44061467  1
  Li  Li110  1  0.79762111  0.75000000  0.05938533  1
  Li  Li111  1  0.70237889  0.25000000  0.55938533  1
