# generated using pymatgen
data_LiF
_symmetry_space_group_name_H-M   'P 1'
_cell_length_a   15.16902793
_cell_length_b   13.62165796
_cell_length_c   15.10653287
_cell_angle_alpha   90.00000000
_cell_angle_beta   90.00000000
_cell_angle_gamma   90.00000000
_symmetry_Int_Tables_number   1
_chemical_formula_structural   LiF
_chemical_formula_sum   'Li108 F108'
_cell_volume   3121.42225055
_cell_formula_units_Z   108
loop_
 _symmetry_equiv_pos_site_id
 _symmetry_equiv_pos_as_xyz
  1  'x, y, z'
loop_
 _atom_site_type_symbol
 _atom_site_label
 _atom_site_symmetry_multiplicity
 _atom_site_fract_x
 _atom_site_fract_y
 _atom_site_fract_z
 _atom_site_occupancy
  F  F0  1  0.00000000  0.00000000  0.50000000  1
  F  F1  1  0.50000000  0.50000000  0.50000000  1
  F  F2  1  0.92960155  0.22934709  0.55583254  1
  F  F3  1  0.07039845  0.77065291  0.55583254  1
  F  F4  1  0.57039845  0.72934709  0.44416746  1
  F  F5  1  0.42960155  0.27065291  0.44416746  1
  F  F6  1  0.07039845  0.77065291  0.44416746  1
  F  F7  1  0.92960155  0.22934709  0.44416746  1
  F  F8  1  0.42960155  0.27065291  0.55583254  1
  F  F9  1  0.57039845  0.72934709  0.55583254  1
  F  F10  1  0.53433808  0.19691407  0.96432050  1
  F  F11  1  0.46566192  0.80308593  0.96432050  1
  F  F12  1  0.96566192  0.69691407  0.03567950  1
  F  F13  1  0.03433808  0.30308593  0.03567950  1
  F  F14  1  0.46566192  0.80308593  0.03567950  1
  F  F15  1  0.53433808  0.19691407  0.03567950  1
  F  F16  1  0.03433808  0.30308593  0.96432050  1
  F  F17  1  0.96566192  0.69691407  0.96432050  1
  F  F18  1  0.83397101  0.38559415  0.39501234  1
  F  F19  1  0.16602899  0.61440585  0.39501234  1
  F  F20  1  0.66602899  0.88559415  0.60498766  1
  F  F21  1  0.33397101  0.11440585  0.60498766  1
  F  F22  1  0.16602899  0.61440585  0.60498766  1
  F  F23  1  0.83397101  0.38559415  0.60498766  1
  F  F24  1  0.33397101  0.11440585  0.39501234  1
  F  F25  1  0.66602899  0.88559415  0.39501234  1
  F  F26  1  0.98383942  0.92179498  0.43253521  1
  F  F27  1  0.01616058  0.07820502  0.43253521  1
  F  F28  1  0.51616058  0.42179498  0.56746479  1
  F  F29  1  0.48383942  0.57820502  0.56746479  1
  F  F30  1  0.01616058  0.07820502  0.56746479  1
  F  F31  1  0.98383942  0.92179498  0.56746479  1
  F  F32  1  0.48383942  0.57820502  0.43253521  1
  F  F33  1  0.51616058  0.42179498  0.43253521  1
  F  F34  1  0.13659072  0.48263387  0.79627941  1
  F  F35  1  0.86340928  0.51736613  0.79627941  1
  F  F36  1  0.36340928  0.98263387  0.20372059  1
  F  F37  1  0.63659072  0.01736613  0.20372059  1
  F  F38  1  0.86340928  0.51736613  0.20372059  1
  F  F39  1  0.13659072  0.48263387  0.20372059  1
  F  F40  1  0.63659072  0.01736613  0.79627941  1
  F  F41  1  0.36340928  0.98263387  0.79627941  1
  F  F42  1  0.54087954  0.31758477  0.00000000  1
  F  F43  1  0.45912046  0.68241523  0.00000000  1
  F  F44  1  0.95912046  0.81758477  0.00000000  1
  F  F45  1  0.04087954  0.18241523  0.00000000  1
  F  F46  1  0.17695310  0.28133463  0.47842500  1
  F  F47  1  0.82304690  0.71866537  0.47842500  1
  F  F48  1  0.32304690  0.78133463  0.52157500  1
  F  F49  1  0.67695310  0.21866537  0.52157500  1
  F  F50  1  0.82304690  0.71866537  0.52157500  1
  F  F51  1  0.17695310  0.28133463  0.52157500  1
  F  F52  1  0.67695310  0.21866537  0.47842500  1
  F  F53  1  0.32304690  0.78133463  0.47842500  1
  F  F54  1  0.26752254  0.12642412  0.11763284  1
  F  F55  1  0.73247746  0.87357588  0.11763284  1
  F  F56  1  0.23247746  0.62642412  0.88236716  1
  F  F57  1  0.76752254  0.37357588  0.88236716  1
  F  F58  1  0.73247746  0.87357588  0.88236716  1
  F  F59  1  0.26752254  0.12642412  0.88236716  1
  F  F60  1  0.76752254  0.37357588  0.11763284  1
  F  F61  1  0.23247746  0.62642412  0.11763284  1
  F  F62  1  0.42596521  0.75877590  0.19487770  1
  F  F63  1  0.57403479  0.24122410  0.19487770  1
  F  F64  1  0.07403479  0.25877590  0.80512230  1
  F  F65  1  0.92596521  0.74122410  0.80512230  1
  F  F66  1  0.57403479  0.24122410  0.80512230  1
  F  F67  1  0.42596521  0.75877590  0.80512230  1
  F  F68  1  0.92596521  0.74122410  0.19487770  1
  F  F69  1  0.07403479  0.25877590  0.19487770  1
  F  F70  1  0.12467087  0.11064546  0.69957019  1
  F  F71  1  0.87532913  0.88935454  0.69957019  1
  F  F72  1  0.37532913  0.61064546  0.30042981  1
  F  F73  1  0.62467087  0.38935454  0.30042981  1
  F  F74  1  0.87532913  0.88935454  0.30042981  1
  F  F75  1  0.12467087  0.11064546  0.30042981  1
  F  F76  1  0.62467087  0.38935454  0.69957019  1
  F  F77  1  0.37532913  0.61064546  0.69957019  1
  F  F78  1  0.61987419  0.92082437  0.05241285  1
  F  F79  1  0.38012581  0.07917563  0.05241285  1
  F  F80  1  0.88012581  0.42082437  0.94758715  1
  F  F81  1  0.11987419  0.57917563  0.94758715  1
  F  F82  1  0.38012581  0.07917563  0.94758715  1
  F  F83  1  0.61987419  0.92082437  0.94758715  1
  F  F84  1  0.11987419  0.57917563  0.05241285  1
  F  F85  1  0.88012581  0.42082437  0.05241285  1
  F  F86  1  0.05259504  0.26176181  0.06464398  1
  F  F87  1  0.94740496  0.73823819  0.06464398  1
  F  F88  1  0.44740496  0.76176181  0.93535602  1
  F  F89  1  0.55259504  0.23823819  0.93535602  1
  F  F90  1  0.94740496  0.73823819  0.93535602  1
  F  F91  1  0.05259504  0.26176181  0.93535602  1
  F  F92  1  0.55259504  0.23823819  0.06464398  1
  F  F93  1  0.44740496  0.76176181  0.06464398  1
  F  F94  1  0.00000000  0.50000000  0.00000000  1
  F  F95  1  0.50000000  0.00000000  0.00000000  1
  F  F96  1  0.76273549  0.56044860  0.03908099  1
  F  F97  1  0.23726451  0.43955140  0.03908099  1
  F  F98  1  0.73726451  0.06044860  0.96091901  1
  F  F99  1  0.26273549  0.93955140  0.96091901  1
  F  F100  1  0.23726451  0.43955140  0.96091901  1
  F  F101  1  0.76273549  0.56044860  0.96091901  1
  F  F102  1  0.26273549  0.93955140  0.03908099  1
  F  F103  1  0.73726451  0.06044860  0.03908099  1
  F  F104  1  0.90403297  0.06394429  0.50000000  1
  F  F105  1  0.09596703  0.93605571  0.50000000  1
  F  F106  1  0.59596703  0.56394429  0.50000000  1
  F  F107  1  0.40403297  0.43605571  0.50000000  1
  Li  Li108  1  0.00000000  0.50000000  0.50000000  1
  Li  Li109  1  0.50000000  0.00000000  0.50000000  1
  Li  Li110  1  0.64381677  0.38874391  0.00000000  1
  Li  Li111  1  0.35618323  0.61125609  0.00000000  1
  Li  Li112  1  0.85618323  0.88874391  0.00000000  1
  Li  Li113  1  0.14381677  0.11125609  0.00000000  1
  Li  Li114  1  0.00000000  0.00000000  0.90021164  1
  Li  Li115  1  0.50000000  0.50000000  0.09978836  1
  Li  Li116  1  0.00000000  0.00000000  0.09978836  1
  Li  Li117  1  0.50000000  0.50000000  0.90021164  1
  Li  Li118  1  0.13869455  0.44767150  0.33812222  1
  Li  Li119  1  -0.13869455  -0.44767150  0.33812222  1
  Li  Li120  1  0.36130545  0.94767150  -0.33812222  1
  Li  Li121  1  0.63869455  0.05232850  -0.33812222  1
  Li  Li122  1  -0.13869455  -0.44767150  -0.33812222  1
  Li  Li123  1  0.13869455  0.44767150  -0.33812222  1
  Li  Li124  1  0.63869455  0.05232850  0.33812222  1
  Li  Li125  1  0.36130545  0.94767150  0.33812222  1
  Li  Li126  1  0.00000000  0.00000000  0.24144033  1
  Li  Li127  1  0.50000000  0.50000000  0.75855967  1
  Li  Li128  1  0.00000000  0.00000000  0.75855967  1
  Li  Li129  1  0.50000000  0.50000000  0.24144033  1
  Li  Li130  1  0.00000000  0.50000000  0.93337550  1
  Li  Li131  1  0.50000000  0.00000000  0.06662450  1
  Li  Li132  1  0.00000000  0.50000000  0.06662450  1
  Li  Li133  1  0.50000000  0.00000000  0.93337550  1
  Li  Li134  1  0.29287028  0.38697133  0.37979669  1
  Li  Li135  1  0.70712972  0.61302867  0.37979669  1
  Li  Li136  1  0.20712972  0.88697133  0.62020331  1
  Li  Li137  1  0.79287028  0.11302867  0.62020331  1
  Li  Li138  1  0.70712972  0.61302867  0.62020331  1
  Li  Li139  1  0.29287028  0.38697133  0.62020331  1
  Li  Li140  1  0.79287028  0.11302867  0.37979669  1
  Li  Li141  1  0.20712972  0.88697133  0.37979669  1
  Li  Li142  1  0.66157999  0.13716646  -0.00000000  1
  Li  Li143  1  0.33842001  0.86283354  0.00000000  1
  Li  Li144  1  0.83842001  0.63716646  0.00000000  1
  Li  Li145  1  0.16157999  0.36283354  0.00000000  1
  Li  Li146  1  0.49644444  0.63323047  0.50000000  1
  Li  Li147  1  0.50355556  0.36676953  0.50000000  1
  Li  Li148  1  0.00355556  0.13323047  0.50000000  1
  Li  Li149  1  0.99644444  0.86676953  0.50000000  1
  Li  Li150  1  0.64902507  0.69792193  0.00000000  1
  Li  Li151  1  0.35097493  0.30207807  -0.00000000  1
  Li  Li152  1  0.85097493  0.19792193  0.00000000  1
  Li  Li153  1  0.14902507  0.80207807  0.00000000  1
  Li  Li154  1  0.70104337  0.23661316  0.05025380  1
  Li  Li155  1  0.29895663  0.76338684  0.05025380  1
  Li  Li156  1  0.79895663  0.73661316  0.94974620  1
  Li  Li157  1  0.20104337  0.26338684  0.94974620  1
  Li  Li158  1  0.29895663  0.76338684  0.94974620  1
  Li  Li159  1  0.70104337  0.23661316  0.94974620  1
  Li  Li160  1  0.20104337  0.26338684  0.05025380  1
  Li  Li161  1  0.79895663  0.73661316  0.05025380  1
  Li  Li162  1  0.44342124  0.26539852  0.14875230  1
  Li  Li163  1  0.55657876  0.73460148  0.14875230  1
  Li  Li164  1  0.05657876  0.76539852  0.85124770  1
  Li  Li165  1  0.94342124  0.23460148  0.85124770  1
  Li  Li166  1  0.55657876  0.73460148  0.85124770  1
  Li  Li167  1  0.44342124  0.26539852  0.85124770  1
  Li  Li168  1  0.94342124  0.23460148  0.14875230  1
  Li  Li169  1  0.05657876  0.76539852  0.14875230  1
  Li  Li170  1  0.98333349  0.11510077  0.00000000  1
  Li  Li171  1  0.01666651  0.88489923  0.00000000  1
  Li  Li172  1  0.51666651  0.61510077  0.00000000  1
  Li  Li173  1  0.48333349  0.38489923  0.00000000  1
  Li  Li174  1  0.10651684  0.79696052  0.50000000  1
  Li  Li175  1  0.89348316  0.20303948  0.50000000  1
  Li  Li176  1  0.39348316  0.29696052  0.50000000  1
  Li  Li177  1  0.60651684  0.70303948  0.50000000  1
  Li  Li178  1  0.57533189  0.20856777  0.50000000  1
  Li  Li179  1  0.42466811  0.79143223  0.50000000  1
  Li  Li180  1  0.92466811  0.70856777  0.50000000  1
  Li  Li181  1  0.07533189  0.29143223  0.50000000  1
  Li  Li182  1  0.13078652  0.61993914  0.17767297  1
  Li  Li183  1  0.86921348  0.38006086  0.17767297  1
  Li  Li184  1  0.36921348  0.11993914  0.82232703  1
  Li  Li185  1  0.63078652  0.88006086  0.82232703  1
  Li  Li186  1  0.86921348  0.38006086  0.82232703  1
  Li  Li187  1  0.13078652  0.61993914  0.82232703  1
  Li  Li188  1  0.63078652  0.88006086  0.17767297  1
  Li  Li189  1  0.36921348  0.11993914  0.17767297  1
  Li  Li190  1  0.35506624  0.84555127  0.32454081  1
  Li  Li191  1  0.64493376  0.15444873  0.32454081  1
  Li  Li192  1  0.14493376  0.34555127  0.67545919  1
  Li  Li193  1  0.85506624  0.65444873  0.67545919  1
  Li  Li194  1  0.64493376  0.15444873  0.67545919  1
  Li  Li195  1  0.35506624  0.84555127  0.67545919  1
  Li  Li196  1  0.85506624  0.65444873  0.32454081  1
  Li  Li197  1  0.14493376  0.34555127  0.32454081  1
  Li  Li198  1  0.77866213  0.60495258  0.50000000  1
  Li  Li199  1  0.22133787  0.39504742  0.50000000  1
  Li  Li200  1  0.72133787  0.10495258  0.50000000  1
  Li  Li201  1  0.27866213  0.89504742  0.50000000  1
  Li  Li202  1  0.02045038  0.24841299  0.00000000  1
  Li  Li203  1  0.97954962  0.75158701  0.00000000  1
  Li  Li204  1  0.47954962  0.74841299  0.00000000  1
  Li  Li205  1  0.52045038  0.25158701  0.00000000  1
  Li  Li206  1  0.78870953  0.79115237  0.70705862  1
  Li  Li207  1  0.21129047  0.20884763  0.70705862  1
  Li  Li208  1  0.71129047  0.29115237  0.29294138  1
  Li  Li209  1  0.28870953  0.70884763  0.29294138  1
  Li  Li210  1  0.21129047  0.20884763  0.29294138  1
  Li  Li211  1  0.78870953  0.79115237  0.29294138  1
  Li  Li212  1  0.28870953  0.70884763  0.70705862  1
  Li  Li213  1  0.71129047  0.29115237  0.70705862  1
  Li  Li214  1  0.00000000  0.00000000  0.00000000  1
  Li  Li215  1  0.50000000  0.50000000  0.00000000  1
