# generated using pymatgen
data_LiF
_symmetry_space_group_name_H-M   'P 1'
_cell_length_a   9.37017826
_cell_length_b   6.24252899
_cell_length_c   13.45611773
_cell_angle_alpha   90.00000000
_cell_angle_beta   90.00000000
_cell_angle_gamma   90.00000000
_symmetry_Int_Tables_number   1
_chemical_formula_structural   LiF
_chemical_formula_sum   'Li24 F24'
_cell_volume   787.09689437
_cell_formula_units_Z   24
loop_
 _symmetry_equiv_pos_site_id
 _symmetry_equiv_pos_as_xyz
  1  'x, y, z'
loop_
 _atom_site_type_symbol
 _atom_site_label
 _atom_site_symmetry_multiplicity
 _atom_site_fract_x
 _atom_site_fract_y
 _atom_site_fract_z
 _atom_site_occupancy
  F  F0  1  0.85290743  0.25000000  0.71451755  1
  F  F1  1  0.64709257  0.75000000  0.21451755  1
  F  F2  1  0.14709257  0.75000000  0.28548245  1
  F  F3  1  0.35290743  0.25000000  0.78548245  1
  F  F4  1  0.06457165  0.25000000  0.44353580  1
  F  F5  1  0.43542835  0.75000000  0.94353580  1
  F  F6  1  0.93542835  0.75000000  0.55646420  1
  F  F7  1  0.56457165  0.25000000  0.05646420  1
  F  F8  1  0.97062496  0.11836812  0.11909258  1
  F  F9  1  0.52937504  0.88163188  0.61909258  1
  F  F10  1  0.02937504  0.61836812  0.88090742  1
  F  F11  1  0.47062496  0.38163188  0.38090742  1
  F  F12  1  0.02937504  0.88163188  0.88090742  1
  F  F13  1  0.47062496  0.11836812  0.38090742  1
  F  F14  1  0.97062496  0.38163188  0.11909258  1
  F  F15  1  0.52937504  0.61836812  0.61909258  1
  F  F16  1  0.66112106  0.58089527  0.81370237  1
  F  F17  1  0.83887894  0.41910473  0.31370237  1
  F  F18  1  0.33887894  0.08089527  0.18629763  1
  F  F19  1  0.16112106  0.91910473  0.68629763  1
  F  F20  1  0.33887894  0.41910473  0.18629763  1
  F  F21  1  0.16112106  0.58089527  0.68629763  1
  F  F22  1  0.66112106  0.91910473  0.81370237  1
  F  F23  1  0.83887894  0.08089527  0.31370237  1
  Li  Li24  1  0.27127456  0.25000000  0.49712243  1
  Li  Li25  1  0.22872544  0.75000000  0.99712243  1
  Li  Li26  1  0.72872544  0.75000000  0.50287757  1
  Li  Li27  1  0.77127456  0.25000000  0.00287757  1
  Li  Li28  1  0.00000000  0.00000000  0.50000000  1
  Li  Li29  1  0.50000000  -0.00000000  0.00000000  1
  Li  Li30  1  0.00000000  0.50000000  0.50000000  1
  Li  Li31  1  0.50000000  0.50000000  -0.00000000  1
  Li  Li32  1  0.79057193  0.25000000  0.32658011  1
  Li  Li33  1  0.70942807  0.75000000  0.82658011  1
  Li  Li34  1  0.20942807  0.75000000  0.67341989  1
  Li  Li35  1  0.29057193  0.25000000  0.17341989  1
  Li  Li36  1  0.16998933  0.25000000  0.75794304  1
  Li  Li37  1  0.33001067  0.75000000  0.25794304  1
  Li  Li38  1  0.83001067  0.75000000  0.24205696  1
  Li  Li39  1  0.66998933  0.25000000  0.74205696  1
  Li  Li40  1  0.82616140  0.08709931  0.94884157  1
  Li  Li41  1  -0.32616140  -0.08709931  1.44884157  1
  Li  Li42  1  -0.82616140  0.58709931  -0.94884157  1
  Li  Li43  1  1.32616140  0.41290069  -0.44884157  1
  Li  Li44  1  -0.82616140  -0.08709931  -0.94884157  1
  Li  Li45  1  1.32616140  0.08709931  -0.44884157  1
  Li  Li46  1  0.82616140  0.41290069  0.94884157  1
  Li  Li47  1  -0.32616140  0.58709931  1.44884157  1
