# generated using pymatgen
data_LiF
_symmetry_space_group_name_H-M   'P 1'
_cell_length_a   4.87338988
_cell_length_b   24.05891995
_cell_length_c   5.83697265
_cell_angle_alpha   90.00000000
_cell_angle_beta   90.00000000
_cell_angle_gamma   90.00000000
_symmetry_Int_Tables_number   1
_chemical_formula_structural   LiF
_chemical_formula_sum   'Li28 F28'
_cell_volume   684.37627039
_cell_formula_units_Z   28
loop_
 _symmetry_equiv_pos_site_id
 _symmetry_equiv_pos_as_xyz
  1  'x, y, z'
loop_
 _atom_site_type_symbol
 _atom_site_label
 _atom_site_symmetry_multiplicity
 _atom_site_fract_x
 _atom_site_fract_y
 _atom_site_fract_z
 _atom_site_occupancy
  F  F0  1  0.83930613  0.25000000  0.18388225  1
  F  F1  1  0.66069387  0.75000000  0.68388225  1
  F  F2  1  0.16069387  0.75000000  0.81611775  1
  F  F3  1  0.33930613  0.25000000  0.31611775  1
  F  F4  1  0.49932754  0.20245193  0.53852267  1
  F  F5  1  0.00067246  0.79754807  0.03852267  1
  F  F6  1  0.50067246  0.70245193  0.46147733  1
  F  F7  1  0.99932754  0.29754807  0.96147733  1
  F  F8  1  0.50067246  0.79754807  0.46147733  1
  F  F9  1  0.99932754  0.20245193  0.96147733  1
  F  F10  1  0.49932754  0.29754807  0.53852267  1
  F  F11  1  0.00067246  0.70245193  0.03852267  1
  F  F12  1  0.73738116  0.25000000  0.54860388  1
  F  F13  1  0.76261884  0.75000000  0.04860388  1
  F  F14  1  0.26261884  0.75000000  0.45139612  1
  F  F15  1  0.23738116  0.25000000  0.95139612  1
  F  F16  1  0.12009900  0.25000000  0.54930803  1
  F  F17  1  0.37990100  0.75000000  0.04930803  1
  F  F18  1  0.87990100  0.75000000  0.45069197  1
  F  F19  1  0.62009900  0.25000000  0.95069197  1
  F  F20  1  0.86793990  0.30834839  0.39449378  1
  F  F21  1  0.63206010  0.69165161  0.89449378  1
  F  F22  1  0.13206010  0.80834839  0.60550622  1
  F  F23  1  0.36793990  0.19165161  0.10550622  1
  F  F24  1  0.13206010  0.69165161  0.60550622  1
  F  F25  1  0.36793990  0.30834839  0.10550622  1
  F  F26  1  0.86793990  0.19165161  0.39449378  1
  F  F27  1  0.63206010  0.80834839  0.89449378  1
  Li  Li28  1  0.92376325  0.25000000  0.46390606  1
  Li  Li29  1  0.57623675  0.75000000  0.96390606  1
  Li  Li30  1  0.07623675  0.75000000  0.53609394  1
  Li  Li31  1  0.42376325  0.25000000  0.03609394  1
  Li  Li32  1  0.71345133  0.83831745  0.09692711  1
  Li  Li33  1  -0.21345133  -0.83831745  0.59692711  1
  Li  Li34  1  -0.71345133  1.33831745  -0.09692711  1
  Li  Li35  1  1.21345133  -0.33831745  0.40307289  1
  Li  Li36  1  -0.71345133  -0.83831745  -0.09692711  1
  Li  Li37  1  1.21345133  0.83831745  0.40307289  1
  Li  Li38  1  0.71345133  -0.33831745  0.09692711  1
  Li  Li39  1  -0.21345133  1.33831745  0.59692711  1
  Li  Li40  1  0.00000000  0.00000000  0.00000000  1
  Li  Li41  1  0.50000000  0.00000000  0.50000000  1
  Li  Li42  1  0.00000000  0.50000000  0.00000000  1
  Li  Li43  1  0.50000000  0.50000000  0.50000000  1
  Li  Li44  1  0.29461554  0.05860337  0.80483358  1
  Li  Li45  1  0.20538446  0.94139663  0.30483358  1
  Li  Li46  1  0.70538446  0.55860337  0.19516642  1
  Li  Li47  1  0.79461554  0.44139663  0.69516642  1
  Li  Li48  1  0.70538446  0.94139663  0.19516642  1
  Li  Li49  1  0.79461554  0.05860337  0.69516642  1
  Li  Li50  1  0.29461554  0.44139663  0.80483358  1
  Li  Li51  1  0.20538446  0.55860337  0.30483358  1
  Li  Li52  1  0.00000000  0.00000000  0.50000000  1
  Li  Li53  1  0.50000000  0.00000000  0.00000000  1
  Li  Li54  1  0.00000000  0.50000000  0.50000000  1
  Li  Li55  1  0.50000000  0.50000000  0.00000000  1
