# generated using pymatgen
data_LiF
_symmetry_space_group_name_H-M   'P 1'
_cell_length_a   7.60048654
_cell_length_b   7.45926768
_cell_length_c   9.21104380
_cell_angle_alpha   90.00000000
_cell_angle_beta   90.00000000
_cell_angle_gamma   90.00000000
_symmetry_Int_Tables_number   1
_chemical_formula_structural   LiF
_chemical_formula_sum   'Li24 F24'
_cell_volume   522.21150302
_cell_formula_units_Z   24
loop_
 _symmetry_equiv_pos_site_id
 _symmetry_equiv_pos_as_xyz
  1  'x, y, z'
loop_
 _atom_site_type_symbol
 _atom_site_label
 _atom_site_symmetry_multiplicity
 _atom_site_fract_x
 _atom_site_fract_y
 _atom_site_fract_z
 _atom_site_occupancy
  F  F0  1  0.11411722  0.63426467  0.60868945  1
  F  F1  1  0.88588278  0.36573533  0.60868945  1
  F  F2  1  0.38588278  0.13426467  0.89131055  1
  F  F3  1  0.61411722  0.86573533  0.89131055  1
  F  F4  1  0.88588278  0.36573533  0.39131055  1
  F  F5  1  0.11411722  0.63426467  0.39131055  1
  F  F6  1  0.61411722  0.86573533  0.10868945  1
  F  F7  1  0.38588278  0.13426467  0.10868945  1
  F  F8  1  0.18456123  0.00423609  0.00000000  1
  F  F9  1  0.81543877  0.99576391  0.00000000  1
  F  F10  1  0.31543877  0.50423609  0.50000000  1
  F  F11  1  0.68456123  0.49576391  0.50000000  1
  F  F12  1  0.59342040  0.79428956  0.95243285  1
  F  F13  1  0.40657960  0.20571044  0.95243285  1
  F  F14  1  0.90657960  0.29428956  0.54756715  1
  F  F15  1  0.09342040  0.70571044  0.54756715  1
  F  F16  1  0.40657960  0.20571044  0.04756715  1
  F  F17  1  0.59342040  0.79428956  0.04756715  1
  F  F18  1  0.09342040  0.70571044  0.45243285  1
  F  F19  1  0.90657960  0.29428956  0.45243285  1
  F  F20  1  0.29614636  0.28033293  0.00000000  1
  F  F21  1  0.70385364  0.71966707  0.00000000  1
  F  F22  1  0.20385364  0.78033293  0.50000000  1
  F  F23  1  0.79614636  0.21966707  0.50000000  1
  Li  Li24  1  0.00000000  0.00000000  0.00000000  1
  Li  Li25  1  0.50000000  0.50000000  0.50000000  1
  Li  Li26  1  0.00000000  0.50000000  0.00000000  1
  Li  Li27  1  0.50000000  0.00000000  0.50000000  1
  Li  Li28  1  0.37044532  0.81195183  0.16147314  1
  Li  Li29  1  -0.37044532  -0.81195183  0.16147314  1
  Li  Li30  1  0.12955468  1.31195183  0.33852686  1
  Li  Li31  1  0.87044532  -0.31195183  0.33852686  1
  Li  Li32  1  -0.37044532  -0.81195183  -0.16147314  1
  Li  Li33  1  0.37044532  0.81195183  -0.16147314  1
  Li  Li34  1  0.87044532  -0.31195183  0.66147314  1
  Li  Li35  1  0.12955468  1.31195183  0.66147314  1
  Li  Li36  1  0.21482676  0.38340325  0.00000000  1
  Li  Li37  1  0.78517324  0.61659675  0.00000000  1
  Li  Li38  1  0.28517324  0.88340325  0.50000000  1
  Li  Li39  1  0.71482676  0.11659675  0.50000000  1
  Li  Li40  1  0.00000000  0.50000000  0.21472325  1
  Li  Li41  1  0.50000000  0.00000000  0.28527675  1
  Li  Li42  1  0.00000000  0.50000000  0.78527675  1
  Li  Li43  1  0.50000000  0.00000000  0.71472325  1
  Li  Li44  1  0.74868070  0.23639418  0.00000000  1
  Li  Li45  1  0.25131930  0.76360582  0.00000000  1
  Li  Li46  1  0.75131930  0.73639418  0.50000000  1
  Li  Li47  1  0.24868070  0.26360582  0.50000000  1
