# generated using pymatgen
data_LiF
_symmetry_space_group_name_H-M   'P 1'
_cell_length_a   11.81945325
_cell_length_b   11.81945325
_cell_length_c   10.63159027
_cell_angle_alpha   90.00000000
_cell_angle_beta   90.00000000
_cell_angle_gamma   120.00000000
_symmetry_Int_Tables_number   1
_chemical_formula_structural   LiF
_chemical_formula_sum   'Li56 F56'
_cell_volume   1286.24481454
_cell_formula_units_Z   56
loop_
 _symmetry_equiv_pos_site_id
 _symmetry_equiv_pos_as_xyz
  1  'x, y, z'
loop_
 _atom_site_type_symbol
 _atom_site_label
 _atom_site_symmetry_multiplicity
 _atom_site_fract_x
 _atom_site_fract_y
 _atom_site_fract_z
 _atom_site_occupancy
  F  F0  1  0.54198591  0.68428519  0.32475310  1
  F  F1  1  0.31571481  0.85770072  0.32475310  1
  F  F2  1  0.14229928  0.45801409  0.32475310  1
  F  F3  1  0.31571481  0.45801409  0.67524690  1
  F  F4  1  0.14229928  0.68428519  0.67524690  1
  F  F5  1  0.54198591  0.85770072  0.67524690  1
  F  F6  1  0.00000000  0.00000000  0.95173606  1
  F  F7  1  0.00000000  0.00000000  0.04826394  1
  F  F8  1  0.53576654  0.41034908  0.53729671  1
  F  F9  1  0.58965092  0.12541746  0.53729671  1
  F  F10  1  0.87458254  0.46423346  0.53729671  1
  F  F11  1  0.58965092  0.46423346  0.46270329  1
  F  F12  1  0.87458254  0.41034908  0.46270329  1
  F  F13  1  0.53576654  0.12541746  0.46270329  1
  F  F14  1  0.97347808  0.60696730  0.04089907  1
  F  F15  1  0.39303270  0.36651078  0.04089907  1
  F  F16  1  0.63348922  0.02652192  0.04089907  1
  F  F17  1  0.39303270  0.02652192  0.95910093  1
  F  F18  1  0.63348922  0.60696730  0.95910093  1
  F  F19  1  0.97347808  0.36651078  0.95910093  1
  F  F20  1  0.25243820  0.66611841  0.79946360  1
  F  F21  1  0.33388159  0.58631979  0.79946360  1
  F  F22  1  0.41368021  0.74756180  0.79946360  1
  F  F23  1  0.33388159  0.74756180  0.20053640  1
  F  F24  1  0.41368021  0.66611841  0.20053640  1
  F  F25  1  0.25243820  0.58631979  0.20053640  1
  F  F26  1  0.74599811  0.25400189  0.00000000  1
  F  F27  1  0.74599811  0.49199622  0.00000000  1
  F  F28  1  0.50800378  0.25400189  0.00000000  1
  F  F29  1  0.15747001  0.98881184  0.53915478  1
  F  F30  1  0.01118816  0.16865817  0.53915478  1
  F  F31  1  0.83134183  0.84252999  0.53915478  1
  F  F32  1  0.01118816  0.84252999  0.46084522  1
  F  F33  1  0.83134183  0.98881184  0.46084522  1
  F  F34  1  0.15747001  0.16865817  0.46084522  1
  F  F35  1  0.05366856  0.84299094  0.97997585  1
  F  F36  1  0.15700906  0.21067762  0.97997585  1
  F  F37  1  0.78932238  0.94633144  0.97997585  1
  F  F38  1  0.15700906  0.94633144  0.02002415  1
  F  F39  1  0.78932238  0.84299094  0.02002415  1
  F  F40  1  0.05366856  0.21067762  0.02002415  1
  F  F41  1  0.46366167  0.35946214  0.46963969  1
  F  F42  1  0.64053786  0.10419953  0.46963969  1
  F  F43  1  0.89580047  0.53633833  0.46963969  1
  F  F44  1  0.64053786  0.53633833  0.53036031  1
  F  F45  1  0.89580047  0.35946214  0.53036031  1
  F  F46  1  0.46366167  0.10419953  0.53036031  1
  F  F47  1  0.24085140  0.58842467  0.65583793  1
  F  F48  1  0.41157533  0.65242673  0.65583793  1
  F  F49  1  0.34757327  0.75914860  0.65583793  1
  F  F50  1  0.41157533  0.75914860  0.34416207  1
  F  F51  1  0.34757327  0.58842467  0.34416207  1
  F  F52  1  0.24085140  0.65242673  0.34416207  1
  F  F53  1  0.21883433  0.78116567  0.00000000  1
  F  F54  1  0.21883433  0.43766866  -0.00000000  1
  F  F55  1  0.56233134  0.78116567  0.00000000  1
  Li  Li56  1  0.82388989  0.62813528  0.77630644  1
  Li  Li57  1  -0.62813528  0.19575461  0.77630644  1
  Li  Li58  1  -0.19575461  -0.82388989  0.77630644  1
  Li  Li59  1  -0.62813528  -0.82388989  -0.77630644  1
  Li  Li60  1  -0.19575461  0.62813528  -0.77630644  1
  Li  Li61  1  0.82388989  0.19575461  -0.77630644  1
  Li  Li62  1  0.42367444  0.57632556  0.00000000  1
  Li  Li63  1  0.42367444  0.84734887  0.00000000  1
  Li  Li64  1  0.15265113  0.57632556  0.00000000  1
  Li  Li65  1  0.16359819  0.83640181  0.50000000  1
  Li  Li66  1  0.16359819  0.32719637  0.50000000  1
  Li  Li67  1  0.67280363  0.83640181  0.50000000  1
  Li  Li68  1  0.33333333  0.66666667  0.50000000  1
  Li  Li69  1  0.92986224  0.07013776  0.00000000  1
  Li  Li70  1  0.92986224  0.85972449  0.00000000  1
  Li  Li71  1  0.14027551  0.07013776  0.00000000  1
  Li  Li72  1  0.66666667  0.33333333  0.00000000  1
  Li  Li73  1  0.33333333  0.66666667  -0.00000000  1
  Li  Li74  1  0.09601662  0.42661162  0.62717910  1
  Li  Li75  1  0.57338838  0.66940499  0.62717910  1
  Li  Li76  1  0.33059501  0.90398338  0.62717910  1
  Li  Li77  1  0.57338838  0.90398338  0.37282090  1
  Li  Li78  1  0.33059501  0.42661162  0.37282090  1
  Li  Li79  1  0.09601662  0.66940499  0.37282090  1
  Li  Li80  1  0.51655827  0.01253593  0.07232640  1
  Li  Li81  1  0.98746407  0.50402234  0.07232640  1
  Li  Li82  1  0.49597766  0.48344173  0.07232640  1
  Li  Li83  1  0.98746407  0.48344173  0.92767360  1
  Li  Li84  1  0.49597766  0.01253593  0.92767360  1
  Li  Li85  1  0.51655827  0.50402234  0.92767360  1
  Li  Li86  1  0.00000000  0.00000000  0.50000000  1
  Li  Li87  1  0.95347195  0.71720160  0.05764751  1
  Li  Li88  1  0.28279840  0.23627035  0.05764751  1
  Li  Li89  1  0.76372965  0.04652805  0.05764751  1
  Li  Li90  1  0.28279840  0.04652805  0.94235249  1
  Li  Li91  1  0.76372965  0.71720160  0.94235249  1
  Li  Li92  1  0.95347195  0.23627035  0.94235249  1
  Li  Li93  1  0.66666667  0.33333333  0.50000000  1
  Li  Li94  1  0.46088670  0.57662958  0.81875914  1
  Li  Li95  1  0.42337042  0.88425712  0.81875914  1
  Li  Li96  1  0.11574288  0.53911330  0.81875914  1
  Li  Li97  1  0.42337042  0.53911330  0.18124086  1
  Li  Li98  1  0.11574288  0.57662958  0.18124086  1
  Li  Li99  1  0.46088670  0.88425712  0.18124086  1
  Li  Li100  1  0.18467090  0.40333162  0.23799880  1
  Li  Li101  1  0.59666838  0.78133928  0.23799880  1
  Li  Li102  1  0.21866072  0.81532910  0.23799880  1
  Li  Li103  1  0.59666838  0.81532910  0.76200120  1
  Li  Li104  1  0.21866072  0.40333162  0.76200120  1
  Li  Li105  1  0.18467090  0.78133928  0.76200120  1
  Li  Li106  1  0.29566998  0.91753804  0.44248835  1
  Li  Li107  1  0.08246196  0.37813194  0.44248835  1
  Li  Li108  1  0.62186806  0.70433002  0.44248835  1
  Li  Li109  1  0.08246196  0.70433002  0.55751165  1
  Li  Li110  1  0.62186806  0.91753804  0.55751165  1
  Li  Li111  1  0.29566998  0.37813194  0.55751165  1
