# generated using pymatgen
data_Li2Y2AsP3
_symmetry_space_group_name_H-M   'P 1'
_cell_length_a   4.23051934
_cell_length_b   4.49594816
_cell_length_c   6.48802304
_cell_angle_alpha   95.78541008
_cell_angle_beta   101.33793208
_cell_angle_gamma   109.03789915
_symmetry_Int_Tables_number   1
_chemical_formula_structural   Li2Y2AsP3
_chemical_formula_sum   'Li2 Y2 As1 P3'
_cell_volume   112.55169107
_cell_formula_units_Z   1
loop_
 _symmetry_equiv_pos_site_id
 _symmetry_equiv_pos_as_xyz
  1  'x, y, z'
loop_
 _atom_site_type_symbol
 _atom_site_label
 _atom_site_symmetry_multiplicity
 _atom_site_fract_x
 _atom_site_fract_y
 _atom_site_fract_z
 _atom_site_occupancy
  P  P0  1  0.12500000  0.12500000  0.12500000  1
  P  P1  1  0.50000000  0.50000000  0.50000000  1
  P  P2  1  0.25000000  0.25000000  0.25000000  1
  As  As3  1  0.75000000  0.75000000  0.75000000  1
  Li  Li4  1  0.85283515  0.51179578  0.28238307  1
  Li  Li5  1  0.15358230  0.98463499  0.90851965  1
  Y  Y6  1  0.24157532  0.12827597  0.26772917  1
  Y  Y7  1  0.69244573  0.16998863  0.00167974  1
