# generated using pymatgen
data_Li2Y2Te4MoP3
_symmetry_space_group_name_H-M   'P 1'
_cell_length_a   5.30712726
_cell_length_b   5.54269420
_cell_length_c   6.98832578
_cell_angle_alpha   93.73987142
_cell_angle_beta   98.45105704
_cell_angle_gamma   105.39153107
_symmetry_Int_Tables_number   1
_chemical_formula_structural   Li2Y2Te4MoP3
_chemical_formula_sum   'Li2 Y2 Te4 Mo1 P3'
_cell_volume   194.86783188
_cell_formula_units_Z   1
loop_
 _symmetry_equiv_pos_site_id
 _symmetry_equiv_pos_as_xyz
  1  'x, y, z'
loop_
 _atom_site_type_symbol
 _atom_site_label
 _atom_site_symmetry_multiplicity
 _atom_site_fract_x
 _atom_site_fract_y
 _atom_site_fract_z
 _atom_site_occupancy
  Te  Te0  1  0.00000000  0.00000000  0.00000000  1
  Te  Te1  1  0.50000000  0.50000000  0.50000000  1
  Te  Te2  1  0.50000000  0.50000000  0.00000000  1
  Te  Te3  1  0.50000000  0.00000000  0.50000000  1
  P  P4  1  0.00000000  0.50000000  0.50000000  1
  P  P5  1  0.44544832  0.33325126  0.55662725  1
  P  P6  1  0.29966939  0.16989557  0.19957490  1
  Mo  Mo7  1  0.22566029  0.85341872  0.28894166  1
  Li  Li8  1  0.91819860  0.78167403  0.17635804  1
  Li  Li9  1  0.42841642  0.84897035  0.36123085  1
  Y  Y10  1  0.66455031  0.03979799  0.70410397  1
  Y  Y11  1  0.09940724  0.87400004  0.80114654  1
