# generated using pymatgen
data_LiF
_symmetry_space_group_name_H-M   'P 1'
_cell_length_a   5.47001800
_cell_length_b   5.47001800
_cell_length_c   21.83131830
_cell_angle_alpha   90.00000000
_cell_angle_beta   90.00000000
_cell_angle_gamma   120.00000000
_symmetry_Int_Tables_number   1
_chemical_formula_structural   LiF
_chemical_formula_sum   'Li36 F36'
_cell_volume   565.70250771
_cell_formula_units_Z   36
loop_
 _symmetry_equiv_pos_site_id
 _symmetry_equiv_pos_as_xyz
  1  'x, y, z'
loop_
 _atom_site_type_symbol
 _atom_site_label
 _atom_site_symmetry_multiplicity
 _atom_site_fract_x
 _atom_site_fract_y
 _atom_site_fract_z
 _atom_site_occupancy
  F  F0  1  0.46685227  0.21873100  0.44853060  1
  F  F1  1  -0.21873100  0.24812127  0.44853060  1
  F  F2  1  -0.24812127  -0.46685227  0.44853060  1
  F  F3  1  -0.46685227  -0.21873100  0.94853060  1
  F  F4  1  0.21873100  -0.24812127  0.94853060  1
  F  F5  1  0.24812127  0.46685227  0.94853060  1
  F  F6  1  -0.46685227  -0.21873100  -0.44853060  1
  F  F7  1  0.21873100  -0.24812127  -0.44853060  1
  F  F8  1  0.24812127  0.46685227  -0.44853060  1
  F  F9  1  0.46685227  0.21873100  0.05146940  1
  F  F10  1  -0.21873100  0.24812127  0.05146940  1
  F  F11  1  -0.24812127  -0.46685227  0.05146940  1
  F  F12  1  0.73345713  0.69221430  0.77502470  1
  F  F13  1  0.30778570  0.04124283  0.77502470  1
  F  F14  1  0.95875717  0.26654287  0.77502470  1
  F  F15  1  0.26654287  0.30778570  0.27502470  1
  F  F16  1  0.69221430  0.95875717  0.27502470  1
  F  F17  1  0.04124283  0.73345713  0.27502470  1
  F  F18  1  0.26654287  0.30778570  0.22497530  1
  F  F19  1  0.69221430  0.95875717  0.22497530  1
  F  F20  1  0.04124283  0.73345713  0.22497530  1
  F  F21  1  0.73345713  0.69221430  0.72497530  1
  F  F22  1  0.30778570  0.04124283  0.72497530  1
  F  F23  1  0.95875717  0.26654287  0.72497530  1
  F  F24  1  0.08470686  0.21546866  0.03590248  1
  F  F25  1  0.78453134  0.86923820  0.03590248  1
  F  F26  1  0.13076180  0.91529314  0.03590248  1
  F  F27  1  0.91529314  0.78453134  0.53590248  1
  F  F28  1  0.21546866  0.13076180  0.53590248  1
  F  F29  1  0.86923820  0.08470686  0.53590248  1
  F  F30  1  0.91529314  0.78453134  0.96409752  1
  F  F31  1  0.21546866  0.13076180  0.96409752  1
  F  F32  1  0.86923820  0.08470686  0.96409752  1
  F  F33  1  0.08470686  0.21546866  0.46409752  1
  F  F34  1  0.78453134  0.86923820  0.46409752  1
  F  F35  1  0.13076180  0.91529314  0.46409752  1
  Li  Li36  1  0.00000000  0.00000000  0.25000000  1
  Li  Li37  1  0.00000000  0.00000000  0.75000000  1
  Li  Li38  1  0.00000000  0.00000000  0.00000000  1
  Li  Li39  1  0.00000000  0.00000000  0.50000000  1
  Li  Li40  1  0.23640144  0.34908970  0.14990220  1
  Li  Li41  1  0.65091030  0.88731174  0.14990220  1
  Li  Li42  1  0.11268826  0.76359856  0.14990220  1
  Li  Li43  1  0.76359856  0.65091030  0.64990220  1
  Li  Li44  1  0.34908970  0.11268826  0.64990220  1
  Li  Li45  1  0.88731174  0.23640144  0.64990220  1
  Li  Li46  1  0.76359856  0.65091030  0.85009780  1
  Li  Li47  1  0.34908970  0.11268826  0.85009780  1
  Li  Li48  1  0.88731174  0.23640144  0.85009780  1
  Li  Li49  1  0.23640144  0.34908970  0.35009780  1
  Li  Li50  1  0.65091030  0.88731174  0.35009780  1
  Li  Li51  1  0.11268826  0.76359856  0.35009780  1
  Li  Li52  1  0.50000000  0.00000000  0.00000000  1
  Li  Li53  1  0.00000000  0.50000000  0.00000000  1
  Li  Li54  1  0.50000000  0.50000000  0.00000000  1
  Li  Li55  1  0.50000000  0.00000000  0.50000000  1
  Li  Li56  1  0.00000000  0.50000000  0.50000000  1
  Li  Li57  1  0.50000000  0.50000000  0.50000000  1
  Li  Li58  1  0.33333333  0.66666667  0.33616566  1
  Li  Li59  1  0.66666667  0.33333333  0.83616566  1
  Li  Li60  1  0.66666667  0.33333333  0.66383434  1
  Li  Li61  1  0.33333333  0.66666667  0.16383434  1
  Li  Li62  1  0.38782374  0.90799714  0.25000000  1
  Li  Li63  1  0.09200286  0.47982660  0.25000000  1
  Li  Li64  1  0.52017340  0.61217626  0.25000000  1
  Li  Li65  1  0.61217626  0.09200286  0.75000000  1
  Li  Li66  1  0.90799714  0.52017340  0.75000000  1
  Li  Li67  1  0.47982660  0.38782374  0.75000000  1
  Li  Li68  1  0.00000000  0.00000000  0.81983218  1
  Li  Li69  1  0.00000000  0.00000000  0.31983218  1
  Li  Li70  1  0.00000000  0.00000000  0.18016782  1
  Li  Li71  1  0.00000000  0.00000000  0.68016782  1
