# generated using pymatgen
data_LiF
_symmetry_space_group_name_H-M   'P 1'
_cell_length_a   6.06322560
_cell_length_b   6.06322560
_cell_length_c   11.50217526
_cell_angle_alpha   90.00000000
_cell_angle_beta   90.00000000
_cell_angle_gamma   120.00000000
_symmetry_Int_Tables_number   1
_chemical_formula_structural   LiF
_chemical_formula_sum   'Li14 F14'
_cell_volume   366.19977055
_cell_formula_units_Z   14
loop_
 _symmetry_equiv_pos_site_id
 _symmetry_equiv_pos_as_xyz
  1  'x, y, z'
loop_
 _atom_site_type_symbol
 _atom_site_label
 _atom_site_symmetry_multiplicity
 _atom_site_fract_x
 _atom_site_fract_y
 _atom_site_fract_z
 _atom_site_occupancy
  F  F0  1  0.63060991  0.47188018  0.70239497  1
  F  F1  1  0.52811982  0.15872973  0.70239497  1
  F  F2  1  0.84127027  0.36939009  0.70239497  1
  F  F3  1  0.52811982  0.36939009  0.29760503  1
  F  F4  1  0.84127027  0.47188018  0.29760503  1
  F  F5  1  0.63060991  0.15872973  0.29760503  1
  F  F6  1  0.60768193  0.77630684  0.28841553  1
  F  F7  1  0.22369316  0.83137509  0.28841553  1
  F  F8  1  0.16862491  0.39231807  0.28841553  1
  F  F9  1  0.22369316  0.39231807  0.71158447  1
  F  F10  1  0.16862491  0.77630684  0.71158447  1
  F  F11  1  0.60768193  0.83137509  0.71158447  1
  F  F12  1  0.66666667  0.33333333  0.50000000  1
  F  F13  1  0.33333333  0.66666667  0.50000000  1
  Li  Li14  1  0.03646136  0.37532527  0.03222162  1
  Li  Li15  1  -0.37532527  -0.33886391  0.03222162  1
  Li  Li16  1  0.33886391  -0.03646136  0.03222162  1
  Li  Li17  1  -0.37532527  -0.03646136  -0.03222162  1
  Li  Li18  1  0.33886391  0.37532527  -0.03222162  1
  Li  Li19  1  0.03646136  -0.33886391  -0.03222162  1
  Li  Li20  1  0.00000000  0.00000000  0.00000000  1
  Li  Li21  1  0.44737540  0.95916801  0.16018416  1
  Li  Li22  1  0.04083199  0.48820739  0.16018416  1
  Li  Li23  1  0.51179261  0.55262460  0.16018416  1
  Li  Li24  1  0.04083199  0.55262460  0.83981584  1
  Li  Li25  1  0.51179261  0.95916801  0.83981584  1
  Li  Li26  1  0.44737540  0.48820739  0.83981584  1
  Li  Li27  1  0.00000000  0.00000000  0.50000000  1
