# generated using pymatgen
data_LiF
_symmetry_space_group_name_H-M   'P 1'
_cell_length_a   9.78147246
_cell_length_b   9.78147246
_cell_length_c   8.54304809
_cell_angle_alpha   90.00000000
_cell_angle_beta   90.00000000
_cell_angle_gamma   120.00000000
_symmetry_Int_Tables_number   1
_chemical_formula_structural   LiF
_chemical_formula_sum   'Li27 F27'
_cell_volume   707.86747114
_cell_formula_units_Z   27
loop_
 _symmetry_equiv_pos_site_id
 _symmetry_equiv_pos_as_xyz
  1  'x, y, z'
loop_
 _atom_site_type_symbol
 _atom_site_label
 _atom_site_symmetry_multiplicity
 _atom_site_fract_x
 _atom_site_fract_y
 _atom_site_fract_z
 _atom_site_occupancy
  F  F0  1  0.71809913  0.79402428  0.18332373  1
  F  F1  1  0.20597572  0.92407485  0.18332373  1
  F  F2  1  0.07592515  0.28190087  0.18332373  1
  F  F3  1  0.20597572  0.28190087  0.81667627  1
  F  F4  1  0.07592515  0.79402428  0.81667627  1
  F  F5  1  0.71809913  0.92407485  0.81667627  1
  F  F6  1  0.00000000  0.00000000  0.00000000  1
  F  F7  1  0.49575669  0.58799426  0.92621172  1
  F  F8  1  0.41200574  0.90776244  0.92621172  1
  F  F9  1  0.09223756  0.50424331  0.92621172  1
  F  F10  1  0.41200574  0.50424331  0.07378828  1
  F  F11  1  0.09223756  0.58799426  0.07378828  1
  F  F12  1  0.49575669  0.90776244  0.07378828  1
  F  F13  1  0.97869807  0.30385367  0.38182578  1
  F  F14  1  0.69614633  0.67484440  0.38182578  1
  F  F15  1  0.32515560  0.02130193  0.38182578  1
  F  F16  1  0.69614633  0.02130193  0.61817422  1
  F  F17  1  0.32515560  0.30385367  0.61817422  1
  F  F18  1  0.97869807  0.67484440  0.61817422  1
  F  F19  1  0.23529778  0.27811649  0.68687059  1
  F  F20  1  0.72188351  0.95718129  0.68687059  1
  F  F21  1  0.04281871  0.76470222  0.68687059  1
  F  F22  1  0.72188351  0.76470222  0.31312941  1
  F  F23  1  0.04281871  0.27811649  0.31312941  1
  F  F24  1  0.23529778  0.95718129  0.31312941  1
  F  F25  1  0.66666667  0.33333333  0.24358045  1
  F  F26  1  0.66666667  0.33333333  0.75641955  1
  Li  Li27  1  0.33333333  0.66666667  0.50000000  1
  Li  Li28  1  0.89313895  0.65143805  0.81856051  1
  Li  Li29  1  -0.65143805  0.24170090  0.81856051  1
  Li  Li30  1  -0.24170090  -0.89313895  0.81856051  1
  Li  Li31  1  -0.65143805  -0.89313895  -0.81856051  1
  Li  Li32  1  -0.24170090  0.65143805  -0.81856051  1
  Li  Li33  1  0.89313895  0.24170090  -0.81856051  1
  Li  Li34  1  0.82844492  0.78274642  0.03935826  1
  Li  Li35  1  0.21725358  0.04569851  0.03935826  1
  Li  Li36  1  0.95430149  0.17155508  0.03935826  1
  Li  Li37  1  0.21725358  0.17155508  0.96064174  1
  Li  Li38  1  0.95430149  0.78274642  0.96064174  1
  Li  Li39  1  0.82844492  0.04569851  0.96064174  1
  Li  Li40  1  0.33333333  0.66666667  0.00000000  1
  Li  Li41  1  0.66182432  0.91985603  0.44058992  1
  Li  Li42  1  0.08014397  0.74196830  0.44058992  1
  Li  Li43  1  0.25803170  0.33817568  0.44058992  1
  Li  Li44  1  0.08014397  0.33817568  0.55941008  1
  Li  Li45  1  0.25803170  0.91985603  0.55941008  1
  Li  Li46  1  0.66182432  0.74196830  0.55941008  1
  Li  Li47  1  0.35395207  0.22739460  0.31743852  1
  Li  Li48  1  0.77260540  0.12655747  0.31743852  1
  Li  Li49  1  0.87344253  0.64604793  0.31743852  1
  Li  Li50  1  0.77260540  0.64604793  0.68256148  1
  Li  Li51  1  0.87344253  0.22739460  0.68256148  1
  Li  Li52  1  0.35395207  0.12655747  0.68256148  1
  Li  Li53  1  0.00000000  0.00000000  0.50000000  1
