# generated using pymatgen
data_LiF
_symmetry_space_group_name_H-M   'P 1'
_cell_length_a   7.51039502
_cell_length_b   7.51039502
_cell_length_c   11.15388246
_cell_angle_alpha   90.00000000
_cell_angle_beta   90.00000000
_cell_angle_gamma   90.00000000
_symmetry_Int_Tables_number   1
_chemical_formula_structural   LiF
_chemical_formula_sum   'Li22 F22'
_cell_volume   629.14626600
_cell_formula_units_Z   22
loop_
 _symmetry_equiv_pos_site_id
 _symmetry_equiv_pos_as_xyz
  1  'x, y, z'
loop_
 _atom_site_type_symbol
 _atom_site_label
 _atom_site_symmetry_multiplicity
 _atom_site_fract_x
 _atom_site_fract_y
 _atom_site_fract_z
 _atom_site_occupancy
  F  F0  1  0.23743508  0.00000000  0.89502365  1
  F  F1  1  -0.23743508  0.00000000  0.89502365  1
  F  F2  1  0.00000000  0.23743508  0.89502365  1
  F  F3  1  0.00000000  -0.23743508  0.89502365  1
  F  F4  1  -0.23743508  0.00000000  -0.89502365  1
  F  F5  1  0.23743508  0.00000000  -0.89502365  1
  F  F6  1  0.00000000  0.23743508  -0.89502365  1
  F  F7  1  0.00000000  -0.23743508  -0.89502365  1
  F  F8  1  0.50000000  0.50000000  0.50000000  1
  F  F9  1  0.00000000  0.00000000  0.42259063  1
  F  F10  1  0.00000000  0.00000000  0.57740937  1
  F  F11  1  0.87834769  0.50000000  0.16508525  1
  F  F12  1  0.12165231  0.50000000  0.16508525  1
  F  F13  1  0.50000000  0.87834769  0.16508525  1
  F  F14  1  0.50000000  0.12165231  0.16508525  1
  F  F15  1  0.12165231  0.50000000  0.83491475  1
  F  F16  1  0.87834769  0.50000000  0.83491475  1
  F  F17  1  0.50000000  0.87834769  0.83491475  1
  F  F18  1  0.50000000  0.12165231  0.83491475  1
  F  F19  1  0.50000000  0.50000000  0.36419065  1
  F  F20  1  0.50000000  0.50000000  0.63580935  1
  F  F21  1  0.00000000  0.00000000  0.00000000  1
  Li  Li22  1  0.35654761  0.50000000  0.76764069  1
  Li  Li23  1  0.64345239  0.50000000  0.76764069  1
  Li  Li24  1  0.50000000  0.35654761  0.76764069  1
  Li  Li25  1  0.50000000  0.64345239  0.76764069  1
  Li  Li26  1  0.64345239  0.50000000  0.23235931  1
  Li  Li27  1  0.35654761  0.50000000  0.23235931  1
  Li  Li28  1  0.50000000  0.35654761  0.23235931  1
  Li  Li29  1  0.50000000  0.64345239  0.23235931  1
  Li  Li30  1  0.83295296  0.83295296  0.00000000  1
  Li  Li31  1  0.16704704  0.16704704  0.00000000  1
  Li  Li32  1  0.16704704  0.83295296  0.00000000  1
  Li  Li33  1  0.83295296  0.16704704  -0.00000000  1
  Li  Li34  1  0.91098785  0.91098785  0.78615466  1
  Li  Li35  1  0.08901215  0.08901215  0.78615466  1
  Li  Li36  1  0.08901215  0.91098785  0.78615466  1
  Li  Li37  1  0.91098785  0.08901215  0.78615466  1
  Li  Li38  1  0.08901215  0.91098785  0.21384534  1
  Li  Li39  1  0.91098785  0.08901215  0.21384534  1
  Li  Li40  1  0.91098785  0.91098785  0.21384534  1
  Li  Li41  1  0.08901215  0.08901215  0.21384534  1
  Li  Li42  1  0.00000000  0.50000000  0.50000000  1
  Li  Li43  1  0.50000000  0.00000000  0.50000000  1
