# generated using pymatgen
data_LiF
_symmetry_space_group_name_H-M   'P 1'
_cell_length_a   7.94006499
_cell_length_b   4.46749192
_cell_length_c   8.55233371
_cell_angle_alpha   90.00000000
_cell_angle_beta   90.00000000
_cell_angle_gamma   90.00000000
_symmetry_Int_Tables_number   1
_chemical_formula_structural   LiF
_chemical_formula_sum   'Li8 F8'
_cell_volume   303.36988788
_cell_formula_units_Z   8
loop_
 _symmetry_equiv_pos_site_id
 _symmetry_equiv_pos_as_xyz
  1  'x, y, z'
loop_
 _atom_site_type_symbol
 _atom_site_label
 _atom_site_symmetry_multiplicity
 _atom_site_fract_x
 _atom_site_fract_y
 _atom_site_fract_z
 _atom_site_occupancy
  F  F0  1  0.60078608  0.32462443  0.10069384  1
  F  F1  1  -0.60078608  -0.32462443  0.10069384  1
  F  F2  1  -0.10078608  0.82462443  -0.10069384  1
  F  F3  1  1.10078608  0.17537557  -0.10069384  1
  F  F4  1  -0.60078608  -0.32462443  -0.10069384  1
  F  F5  1  0.60078608  0.32462443  -0.10069384  1
  F  F6  1  1.10078608  0.17537557  0.10069384  1
  F  F7  1  -0.10078608  0.82462443  0.10069384  1
  Li  Li8  1  0.71595088  0.64080684  0.00000000  1
  Li  Li9  1  0.28404912  0.35919316  0.00000000  1
  Li  Li10  1  0.78404912  0.14080684  -0.00000000  1
  Li  Li11  1  0.21595088  0.85919316  -0.00000000  1
  Li  Li12  1  0.76823631  0.07791737  0.50000000  1
  Li  Li13  1  0.23176369  0.92208263  0.50000000  1
  Li  Li14  1  0.73176369  0.57791737  0.50000000  1
  Li  Li15  1  0.26823631  0.42208263  0.50000000  1
