# generated using pymatgen
data_LiF
_symmetry_space_group_name_H-M   'P 1'
_cell_length_a   5.69367889
_cell_length_b   8.94412795
_cell_length_c   13.16522201
_cell_angle_alpha   90.00000000
_cell_angle_beta   90.00000000
_cell_angle_gamma   90.00000000
_symmetry_Int_Tables_number   1
_chemical_formula_structural   LiF
_chemical_formula_sum   'Li24 F24'
_cell_volume   670.43883164
_cell_formula_units_Z   24
loop_
 _symmetry_equiv_pos_site_id
 _symmetry_equiv_pos_as_xyz
  1  'x, y, z'
loop_
 _atom_site_type_symbol
 _atom_site_label
 _atom_site_symmetry_multiplicity
 _atom_site_fract_x
 _atom_site_fract_y
 _atom_site_fract_z
 _atom_site_occupancy
  F  F0  1  0.17021444  0.89639041  0.78424489  1
  F  F1  1  -0.17021444  -0.89639041  0.78424489  1
  F  F2  1  0.32978556  1.39639041  -0.78424489  1
  F  F3  1  0.67021444  -0.39639041  -0.78424489  1
  F  F4  1  -0.17021444  -0.89639041  -0.78424489  1
  F  F5  1  0.17021444  0.89639041  -0.78424489  1
  F  F6  1  0.67021444  -0.39639041  0.78424489  1
  F  F7  1  0.32978556  1.39639041  0.78424489  1
  F  F8  1  0.68769090  0.05020241  0.73835071  1
  F  F9  1  0.31230910  0.94979759  0.73835071  1
  F  F10  1  0.81230910  0.55020241  0.26164929  1
  F  F11  1  0.18769090  0.44979759  0.26164929  1
  F  F12  1  0.31230910  0.94979759  0.26164929  1
  F  F13  1  0.68769090  0.05020241  0.26164929  1
  F  F14  1  0.18769090  0.44979759  0.73835071  1
  F  F15  1  0.81230910  0.55020241  0.73835071  1
  F  F16  1  0.00000000  0.00000000  0.50000000  1
  F  F17  1  0.50000000  0.50000000  0.50000000  1
  F  F18  1  0.00000000  0.50000000  0.00000000  1
  F  F19  1  0.50000000  0.00000000  0.00000000  1
  F  F20  1  0.00000000  0.00000000  0.00000000  1
  F  F21  1  0.50000000  0.50000000  0.00000000  1
  F  F22  1  0.00000000  0.50000000  0.50000000  1
  F  F23  1  0.50000000  0.00000000  0.50000000  1
  Li  Li24  1  0.16024849  0.27887640  0.14545114  1
  Li  Li25  1  0.83975151  0.72112360  0.14545114  1
  Li  Li26  1  0.33975151  0.77887640  0.85454886  1
  Li  Li27  1  0.66024849  0.22112360  0.85454886  1
  Li  Li28  1  0.83975151  0.72112360  0.85454886  1
  Li  Li29  1  0.16024849  0.27887640  0.85454886  1
  Li  Li30  1  0.66024849  0.22112360  0.14545114  1
  Li  Li31  1  0.33975151  0.77887640  0.14545114  1
  Li  Li32  1  0.47609856  0.83039546  0.31647503  1
  Li  Li33  1  0.52390144  0.16960454  0.31647503  1
  Li  Li34  1  0.02390144  0.33039546  0.68352497  1
  Li  Li35  1  0.97609856  0.66960454  0.68352497  1
  Li  Li36  1  0.52390144  0.16960454  0.68352497  1
  Li  Li37  1  0.47609856  0.83039546  0.68352497  1
  Li  Li38  1  0.97609856  0.66960454  0.31647503  1
  Li  Li39  1  0.02390144  0.33039546  0.31647503  1
  Li  Li40  1  0.18490251  0.03774404  0.33282466  1
  Li  Li41  1  0.81509749  0.96225596  0.33282466  1
  Li  Li42  1  0.31509749  0.53774404  0.66717534  1
  Li  Li43  1  0.68490251  0.46225596  0.66717534  1
  Li  Li44  1  0.81509749  0.96225596  0.66717534  1
  Li  Li45  1  0.18490251  0.03774404  0.66717534  1
  Li  Li46  1  0.68490251  0.46225596  0.33282466  1
  Li  Li47  1  0.31509749  0.53774404  0.33282466  1
