# generated using pymatgen
data_LiF
_symmetry_space_group_name_H-M   'P 1'
_cell_length_a   16.03037307
_cell_length_b   16.03037307
_cell_length_c   7.90022704
_cell_angle_alpha   90.00000000
_cell_angle_beta   90.00000000
_cell_angle_gamma   120.00000000
_symmetry_Int_Tables_number   1
_chemical_formula_structural   LiF
_chemical_formula_sum   'Li62 F62'
_cell_volume   1758.15622879
_cell_formula_units_Z   62
loop_
 _symmetry_equiv_pos_site_id
 _symmetry_equiv_pos_as_xyz
  1  'x, y, z'
loop_
 _atom_site_type_symbol
 _atom_site_label
 _atom_site_symmetry_multiplicity
 _atom_site_fract_x
 _atom_site_fract_y
 _atom_site_fract_z
 _atom_site_occupancy
  F  F0  1  0.33333333  0.66666667  0.00000000  1
  F  F1  1  0.09881818  0.48789091  0.94103538  1
  F  F2  1  0.51210909  0.61092727  0.94103538  1
  F  F3  1  0.38907273  0.90118182  0.94103538  1
  F  F4  1  0.51210909  0.90118182  0.05896462  1
  F  F5  1  0.38907273  0.48789091  0.05896462  1
  F  F6  1  0.09881818  0.61092727  0.05896462  1
  F  F7  1  0.76464271  0.46073753  0.67549251  1
  F  F8  1  0.53926247  0.30390518  0.67549251  1
  F  F9  1  0.69609482  0.23535729  0.67549251  1
  F  F10  1  0.53926247  0.23535729  0.32450749  1
  F  F11  1  0.69609482  0.46073753  0.32450749  1
  F  F12  1  0.76464271  0.30390518  0.32450749  1
  F  F13  1  0.92121062  0.38079356  0.86982890  1
  F  F14  1  0.61920644  0.54041706  0.86982890  1
  F  F15  1  0.45958294  0.07878938  0.86982890  1
  F  F16  1  0.61920644  0.07878938  0.13017110  1
  F  F17  1  0.45958294  0.38079356  0.13017110  1
  F  F18  1  0.92121062  0.54041706  0.13017110  1
  F  F19  1  0.03168434  0.41848120  0.70032220  1
  F  F20  1  0.58151880  0.61320314  0.70032220  1
  F  F21  1  0.38679686  0.96831566  0.70032220  1
  F  F22  1  0.58151880  0.96831566  0.29967780  1
  F  F23  1  0.38679686  0.41848120  0.29967780  1
  F  F24  1  0.03168434  0.61320314  0.29967780  1
  F  F25  1  0.33333333  0.66666667  0.50000000  1
  F  F26  1  0.11686315  0.73671354  0.14756529  1
  F  F27  1  0.26328646  0.38014961  0.14756529  1
  F  F28  1  0.61985039  0.88313685  0.14756529  1
  F  F29  1  0.26328646  0.88313685  0.85243471  1
  F  F30  1  0.61985039  0.73671354  0.85243471  1
  F  F31  1  0.11686315  0.38014961  0.85243471  1
  F  F32  1  0.81398715  0.46543501  0.32647135  1
  F  F33  1  0.53456499  0.34855214  0.32647135  1
  F  F34  1  0.65144786  0.18601285  0.32647135  1
  F  F35  1  0.53456499  0.18601285  0.67352865  1
  F  F36  1  0.65144786  0.46543501  0.67352865  1
  F  F37  1  0.81398715  0.34855214  0.67352865  1
  F  F38  1  0.92462114  0.07537886  0.50000000  1
  F  F39  1  0.92462114  0.84924229  0.50000000  1
  F  F40  1  0.15075771  0.07537886  0.50000000  1
  F  F41  1  0.68505289  0.77572146  0.54739015  1
  F  F42  1  0.22427854  0.90933143  0.54739015  1
  F  F43  1  0.09066857  0.31494711  0.54739015  1
  F  F44  1  0.22427854  0.31494711  0.45260985  1
  F  F45  1  0.09066857  0.77572146  0.45260985  1
  F  F46  1  0.68505289  0.90933143  0.45260985  1
  F  F47  1  0.89249930  0.68943265  0.78486970  1
  F  F48  1  0.31056735  0.20306664  0.78486970  1
  F  F49  1  0.79693336  0.10750070  0.78486970  1
  F  F50  1  0.31056735  0.10750070  0.21513030  1
  F  F51  1  0.79693336  0.68943265  0.21513030  1
  F  F52  1  0.89249930  0.20306664  0.21513030  1
  F  F53  1  0.00000000  0.00000000  0.33198739  1
  F  F54  1  0.00000000  0.00000000  0.66801261  1
  F  F55  1  0.32644882  0.52074068  0.10900309  1
  F  F56  1  0.47925932  0.80570814  0.10900309  1
  F  F57  1  0.19429186  0.67355118  0.10900309  1
  F  F58  1  0.47925932  0.67355118  0.89099691  1
  F  F59  1  0.19429186  0.52074068  0.89099691  1
  F  F60  1  0.32644882  0.80570814  0.89099691  1
  F  F61  1  0.00000000  0.00000000  0.50000000  1
  Li  Li62  1  0.33402279  0.39552909  0.71867814  1
  Li  Li63  1  -0.39552909  -0.06150630  0.71867814  1
  Li  Li64  1  0.06150630  -0.33402279  0.71867814  1
  Li  Li65  1  -0.39552909  -0.33402279  -0.71867814  1
  Li  Li66  1  0.06150630  0.39552909  -0.71867814  1
  Li  Li67  1  0.33402279  -0.06150630  -0.71867814  1
  Li  Li68  1  0.66666667  0.33333333  0.00000000  1
  Li  Li69  1  0.52635867  0.00956633  0.60820730  1
  Li  Li70  1  0.99043367  0.51679234  0.60820730  1
  Li  Li71  1  0.48320766  0.47364133  0.60820730  1
  Li  Li72  1  0.99043367  0.47364133  0.39179270  1
  Li  Li73  1  0.48320766  0.00956633  0.39179270  1
  Li  Li74  1  0.52635867  0.51679234  0.39179270  1
  Li  Li75  1  0.42849003  0.81519095  0.28592374  1
  Li  Li76  1  0.18480905  0.61329908  0.28592374  1
  Li  Li77  1  0.38670092  0.57150997  0.28592374  1
  Li  Li78  1  0.18480905  0.57150997  0.71407626  1
  Li  Li79  1  0.38670092  0.81519095  0.71407626  1
  Li  Li80  1  0.42849003  0.61329908  0.71407626  1
  Li  Li81  1  0.00000000  0.00000000  0.00000000  1
  Li  Li82  1  0.39731384  0.46901136  0.43702776  1
  Li  Li83  1  0.53098864  0.92830248  0.43702776  1
  Li  Li84  1  0.07169752  0.60268616  0.43702776  1
  Li  Li85  1  0.53098864  0.60268616  0.56297224  1
  Li  Li86  1  0.07169752  0.46901136  0.56297224  1
  Li  Li87  1  0.39731384  0.92830248  0.56297224  1
  Li  Li88  1  0.47057862  0.72566767  0.71498329  1
  Li  Li89  1  0.27433233  0.74491094  0.71498329  1
  Li  Li90  1  0.25508906  0.52942138  0.71498329  1
  Li  Li91  1  0.27433233  0.52942138  0.28501671  1
  Li  Li92  1  0.25508906  0.72566767  0.28501671  1
  Li  Li93  1  0.47057862  0.74491094  0.28501671  1
  Li  Li94  1  0.54976998  0.45023002  -0.00000000  1
  Li  Li95  1  0.54976998  0.09953995  -0.00000000  1
  Li  Li96  1  0.90046005  0.45023002  -0.00000000  1
  Li  Li97  1  0.66666667  0.33333333  0.50000000  1
  Li  Li98  1  0.19446913  0.94814000  0.61109058  1
  Li  Li99  1  0.05186000  0.24632913  0.61109058  1
  Li  Li100  1  0.75367087  0.80553087  0.61109058  1
  Li  Li101  1  0.05186000  0.80553087  0.38890942  1
  Li  Li102  1  0.75367087  0.94814000  0.38890942  1
  Li  Li103  1  0.19446913  0.24632913  0.38890942  1
  Li  Li104  1  0.31338630  0.17949328  0.42213642  1
  Li  Li105  1  0.82050672  0.13389302  0.42213642  1
  Li  Li106  1  0.86610698  0.68661370  0.42213642  1
  Li  Li107  1  0.82050672  0.68661370  0.57786358  1
  Li  Li108  1  0.86610698  0.17949328  0.57786358  1
  Li  Li109  1  0.31338630  0.13389302  0.57786358  1
  Li  Li110  1  0.07420196  0.91186075  0.66022534  1
  Li  Li111  1  0.08813925  0.16234122  0.66022534  1
  Li  Li112  1  0.83765878  0.92579804  0.66022534  1
  Li  Li113  1  0.08813925  0.92579804  0.33977466  1
  Li  Li114  1  0.83765878  0.91186075  0.33977466  1
  Li  Li115  1  0.07420196  0.16234122  0.33977466  1
  Li  Li116  1  0.33333333  0.66666667  0.75312340  1
  Li  Li117  1  0.33333333  0.66666667  0.24687660  1
  Li  Li118  1  0.71059600  0.16838685  0.94327257  1
  Li  Li119  1  0.83161315  0.54220915  0.94327257  1
  Li  Li120  1  0.45779085  0.28940400  0.94327257  1
  Li  Li121  1  0.83161315  0.28940400  0.05672743  1
  Li  Li122  1  0.45779085  0.16838685  0.05672743  1
  Li  Li123  1  0.71059600  0.54220915  0.05672743  1
