# generated using pymatgen
data_LiF
_symmetry_space_group_name_H-M   'P 1'
_cell_length_a   11.62280330
_cell_length_b   8.16152734
_cell_length_c   5.98987393
_cell_angle_alpha   90.00000000
_cell_angle_beta   90.00000000
_cell_angle_gamma   90.00000000
_symmetry_Int_Tables_number   1
_chemical_formula_structural   LiF
_chemical_formula_sum   'Li16 F16'
_cell_volume   568.19840382
_cell_formula_units_Z   16
loop_
 _symmetry_equiv_pos_site_id
 _symmetry_equiv_pos_as_xyz
  1  'x, y, z'
loop_
 _atom_site_type_symbol
 _atom_site_label
 _atom_site_symmetry_multiplicity
 _atom_site_fract_x
 _atom_site_fract_y
 _atom_site_fract_z
 _atom_site_occupancy
  F  F0  1  0.27377979  0.91566835  -0.00000000  1
  F  F1  1  0.72622021  0.08433165  0.00000000  1
  F  F2  1  0.22622021  0.41566835  0.50000000  1
  F  F3  1  0.77377979  0.58433165  0.50000000  1
  F  F4  1  0.00000000  0.00000000  0.00000000  1
  F  F5  1  0.50000000  0.50000000  0.50000000  1
  F  F6  1  0.08482100  0.32252782  0.33133718  1
  F  F7  1  -0.08482100  -0.32252782  0.33133718  1
  F  F8  1  0.41517900  0.82252782  0.16866282  1
  F  F9  1  0.58482100  0.17747218  0.16866282  1
  F  F10  1  -0.08482100  -0.32252782  -0.33133718  1
  F  F11  1  0.08482100  0.32252782  -0.33133718  1
  F  F12  1  0.58482100  0.17747218  0.83133718  1
  F  F13  1  0.41517900  0.82252782  0.83133718  1
  F  F14  1  0.00000000  0.00000000  0.50000000  1
  F  F15  1  0.50000000  0.50000000  0.00000000  1
  Li  Li16  1  0.76411797  0.54937461  -0.00000000  1
  Li  Li17  1  0.23588203  0.45062539  0.00000000  1
  Li  Li18  1  0.73588203  0.04937461  0.50000000  1
  Li  Li19  1  0.26411797  0.95062539  0.50000000  1
  Li  Li20  1  0.51678050  0.75134104  0.61463620  1
  Li  Li21  1  0.48321950  0.24865896  0.61463620  1
  Li  Li22  1  0.98321950  0.25134104  0.88536380  1
  Li  Li23  1  0.01678050  0.74865896  0.88536380  1
  Li  Li24  1  0.48321950  0.24865896  0.38536380  1
  Li  Li25  1  0.51678050  0.75134104  0.38536380  1
  Li  Li26  1  0.01678050  0.74865896  0.11463620  1
  Li  Li27  1  0.98321950  0.25134104  0.11463620  1
  Li  Li28  1  0.00000000  0.50000000  0.00000000  1
  Li  Li29  1  0.50000000  0.00000000  0.50000000  1
  Li  Li30  1  0.00000000  0.50000000  0.50000000  1
  Li  Li31  1  0.50000000  0.00000000  0.00000000  1
