# generated using pymatgen
data_Li2Y2As2P2Se
_symmetry_space_group_name_H-M   'P 1'
_cell_length_a   5.06124685
_cell_length_b   5.10862636
_cell_length_c   7.18765057
_cell_angle_alpha   94.68091576
_cell_angle_beta   100.19406138
_cell_angle_gamma   108.80137821
_symmetry_Int_Tables_number   1
_chemical_formula_structural   Li2Y2As2P2Se
_chemical_formula_sum   'Li2 Y2 As2 P2 Se1'
_cell_volume   171.22257803
_cell_formula_units_Z   1
loop_
 _symmetry_equiv_pos_site_id
 _symmetry_equiv_pos_as_xyz
  1  'x, y, z'
loop_
 _atom_site_type_symbol
 _atom_site_label
 _atom_site_symmetry_multiplicity
 _atom_site_fract_x
 _atom_site_fract_y
 _atom_site_fract_z
 _atom_site_occupancy
  Se  Se0  1  0.00000000  0.00000000  0.00000000  1
  Y  Y1  1  0.50000000  0.50000000  0.50000000  1
  Y  Y2  1  0.25000000  0.25000000  0.25000000  1
  P  P3  1  0.75000000  0.25000000  0.00000000  1
  P  P4  1  0.25000000  0.75000000  0.50000000  1
  As  As5  1  0.14474839  0.45984822  0.86822896  1
  As  As6  1  0.78319306  0.97732609  0.33506934  1
  Li  Li7  1  0.17403416  0.23215375  0.76029203  1
  Li  Li8  1  0.58656516  0.40023957  0.10803692  1
