# generated using pymatgen
data_LiF
_symmetry_space_group_name_H-M   'P 1'
_cell_length_a   13.61596681
_cell_length_b   5.40109926
_cell_length_c   6.81773420
_cell_angle_alpha   90.00000000
_cell_angle_beta   90.00000000
_cell_angle_gamma   90.00000000
_symmetry_Int_Tables_number   1
_chemical_formula_structural   LiF
_chemical_formula_sum   'Li16 F16'
_cell_volume   501.38427408
_cell_formula_units_Z   16
loop_
 _symmetry_equiv_pos_site_id
 _symmetry_equiv_pos_as_xyz
  1  'x, y, z'
loop_
 _atom_site_type_symbol
 _atom_site_label
 _atom_site_symmetry_multiplicity
 _atom_site_fract_x
 _atom_site_fract_y
 _atom_site_fract_z
 _atom_site_occupancy
  F  F0  1  0.48470185  0.93255544  0.10309495  1
  F  F1  1  -0.48470185  -0.93255544  0.10309495  1
  F  F2  1  0.01529815  1.43255544  -0.10309495  1
  F  F3  1  0.98470185  -0.43255544  -0.10309495  1
  F  F4  1  -0.48470185  -0.93255544  -0.10309495  1
  F  F5  1  0.48470185  0.93255544  -0.10309495  1
  F  F6  1  0.98470185  -0.43255544  0.10309495  1
  F  F7  1  0.01529815  1.43255544  0.10309495  1
  F  F8  1  0.73259028  0.78379240  0.71140779  1
  F  F9  1  0.26740972  0.21620760  0.71140779  1
  F  F10  1  0.76740972  0.28379240  0.28859221  1
  F  F11  1  0.23259028  0.71620760  0.28859221  1
  F  F12  1  0.26740972  0.21620760  0.28859221  1
  F  F13  1  0.73259028  0.78379240  0.28859221  1
  F  F14  1  0.23259028  0.71620760  0.71140779  1
  F  F15  1  0.76740972  0.28379240  0.71140779  1
  Li  Li16  1  0.81973049  0.73966309  0.00000000  1
  Li  Li17  1  0.18026951  0.26033691  -0.00000000  1
  Li  Li18  1  0.68026951  0.23966309  0.00000000  1
  Li  Li19  1  0.31973049  0.76033691  0.00000000  1
  Li  Li20  1  0.00000000  0.00000000  0.00000000  1
  Li  Li21  1  0.50000000  0.50000000  0.00000000  1
  Li  Li22  1  0.54088412  0.22437125  0.33527808  1
  Li  Li23  1  0.45911588  0.77562875  0.33527808  1
  Li  Li24  1  0.95911588  0.72437125  0.66472192  1
  Li  Li25  1  0.04088412  0.27562875  0.66472192  1
  Li  Li26  1  0.45911588  0.77562875  0.66472192  1
  Li  Li27  1  0.54088412  0.22437125  0.66472192  1
  Li  Li28  1  0.04088412  0.27562875  0.33527808  1
  Li  Li29  1  0.95911588  0.72437125  0.33527808  1
  Li  Li30  1  0.00000000  0.50000000  0.50000000  1
  Li  Li31  1  0.50000000  0.00000000  0.50000000  1
