# generated using pymatgen
data_Li2Si4Te3F12
_symmetry_space_group_name_H-M   'P 1'
_cell_length_a   16.64180343
_cell_length_b   16.64180343
_cell_length_c   4.95776517
_cell_angle_alpha   90.00000000
_cell_angle_beta   90.00000000
_cell_angle_gamma   120.00000000
_symmetry_Int_Tables_number   1
_chemical_formula_structural   Li2Si4Te3F12
_chemical_formula_sum   'Li8 Si16 Te12 F48'
_cell_volume   1189.09720890
_cell_formula_units_Z   4
loop_
 _symmetry_equiv_pos_site_id
 _symmetry_equiv_pos_as_xyz
  1  'x, y, z'
loop_
 _atom_site_type_symbol
 _atom_site_label
 _atom_site_symmetry_multiplicity
 _atom_site_fract_x
 _atom_site_fract_y
 _atom_site_fract_z
 _atom_site_occupancy
  F  F0  1  0.33333333  0.66666667  0.25000000  1
  F  F1  1  0.66666667  0.33333333  0.75000000  1
  F  F2  1  0.70979743  0.58747161  0.25000000  1
  F  F3  1  0.41252839  0.12232582  0.25000000  1
  F  F4  1  0.87767418  0.29020257  0.25000000  1
  F  F5  1  0.29020257  0.41252839  0.75000000  1
  F  F6  1  0.58747161  0.87767418  0.75000000  1
  F  F7  1  0.12232582  0.70979743  0.75000000  1
  F  F8  1  0.58747161  0.70979743  0.75000000  1
  F  F9  1  0.12232582  0.41252839  0.75000000  1
  F  F10  1  0.29020257  0.87767418  0.75000000  1
  F  F11  1  0.41252839  0.29020257  0.25000000  1
  F  F12  1  0.87767418  0.58747161  0.25000000  1
  F  F13  1  0.70979743  0.12232582  0.25000000  1
  F  F14  1  0.43802806  0.34010745  0.25000000  1
  F  F15  1  0.65989255  0.09792061  0.25000000  1
  F  F16  1  0.90207939  0.56197194  0.25000000  1
  F  F17  1  0.56197194  0.65989255  0.75000000  1
  F  F18  1  0.34010745  0.90207939  0.75000000  1
  F  F19  1  0.09792061  0.43802806  0.75000000  1
  F  F20  1  0.34010745  0.43802806  0.75000000  1
  F  F21  1  0.09792061  0.65989255  0.75000000  1
  F  F22  1  0.56197194  0.90207939  0.75000000  1
  F  F23  1  0.65989255  0.56197194  0.25000000  1
  F  F24  1  0.90207939  0.34010745  0.25000000  1
  F  F25  1  0.43802806  0.09792061  0.25000000  1
  F  F26  1  0.13354473  0.00000000  0.00000000  1
  F  F27  1  0.00000000  0.13354473  0.00000000  1
  F  F28  1  0.86645527  0.86645527  0.00000000  1
  F  F29  1  0.86645527  0.00000000  0.50000000  1
  F  F30  1  0.00000000  0.86645527  0.50000000  1
  F  F31  1  0.13354473  0.13354473  0.50000000  1
  F  F32  1  0.86645527  0.00000000  0.00000000  1
  F  F33  1  0.00000000  0.86645527  0.00000000  1
  F  F34  1  0.13354473  0.13354473  0.00000000  1
  F  F35  1  0.13354473  0.00000000  0.50000000  1
  F  F36  1  0.00000000  0.13354473  0.50000000  1
  F  F37  1  0.86645527  0.86645527  0.50000000  1
  F  F38  1  0.43592815  0.87185629  0.25000000  1
  F  F39  1  0.12814371  0.56407185  0.25000000  1
  F  F40  1  0.43592815  0.56407185  0.25000000  1
  F  F41  1  0.56407185  0.12814371  0.75000000  1
  F  F42  1  0.87185629  0.43592815  0.75000000  1
  F  F43  1  0.56407185  0.43592815  0.75000000  1
  F  F44  1  0.33333333  0.66666667  0.02629160  1
  F  F45  1  0.66666667  0.33333333  0.52629160  1
  F  F46  1  0.66666667  0.33333333  0.97370840  1
  F  F47  1  0.33333333  0.66666667  0.47370840  1
  Li  Li48  1  0.08760307  0.17520614  0.25000000  1
  Li  Li49  1  0.82479386  0.91239693  0.25000000  1
  Li  Li50  1  0.08760307  0.91239693  0.25000000  1
  Li  Li51  1  0.91239693  0.82479386  0.75000000  1
  Li  Li52  1  0.17520614  0.08760307  0.75000000  1
  Li  Li53  1  0.91239693  0.08760307  0.75000000  1
  Li  Li54  1  0.00000000  0.00000000  0.25000000  1
  Li  Li55  1  0.00000000  0.00000000  0.75000000  1
  Si  Si56  1  0.00000000  0.00000000  0.00000000  1
  Si  Si57  1  0.00000000  0.00000000  0.50000000  1
  Si  Si58  1  0.33949180  0.49606387  0.25000000  1
  Si  Si59  1  -0.49606387  -0.15657207  0.25000000  1
  Si  Si60  1  0.15657207  -0.33949180  0.25000000  1
  Si  Si61  1  -0.33949180  -0.49606387  0.75000000  1
  Si  Si62  1  0.49606387  0.15657207  0.75000000  1
  Si  Si63  1  -0.15657207  0.33949180  0.75000000  1
  Si  Si64  1  0.49606387  0.33949180  0.75000000  1
  Si  Si65  1  -0.15657207  -0.49606387  0.75000000  1
  Si  Si66  1  -0.33949180  0.15657207  0.75000000  1
  Si  Si67  1  -0.49606387  -0.33949180  0.25000000  1
  Si  Si68  1  0.15657207  0.49606387  0.25000000  1
  Si  Si69  1  0.33949180  -0.15657207  0.25000000  1
  Si  Si70  1  0.33333333  0.66666667  0.75000000  1
  Si  Si71  1  0.66666667  0.33333333  0.25000000  1
  Te  Te72  1  0.79006128  0.00000000  0.00000000  1
  Te  Te73  1  0.00000000  0.79006128  -0.00000000  1
  Te  Te74  1  0.20993872  0.20993872  0.00000000  1
  Te  Te75  1  0.20993872  0.00000000  0.50000000  1
  Te  Te76  1  0.00000000  0.20993872  0.50000000  1
  Te  Te77  1  0.79006128  0.79006128  0.50000000  1
  Te  Te78  1  0.20993872  0.00000000  0.00000000  1
  Te  Te79  1  0.00000000  0.20993872  0.00000000  1
  Te  Te80  1  0.79006128  0.79006128  0.00000000  1
  Te  Te81  1  0.79006128  0.00000000  0.50000000  1
  Te  Te82  1  0.00000000  0.79006128  0.50000000  1
  Te  Te83  1  0.20993872  0.20993872  0.50000000  1
