# generated using pymatgen
data_LiF
_symmetry_space_group_name_H-M   'P 1'
_cell_length_a   11.11546289
_cell_length_b   11.11546289
_cell_length_c   9.49648163
_cell_angle_alpha   90.00000000
_cell_angle_beta   90.00000000
_cell_angle_gamma   120.00000000
_symmetry_Int_Tables_number   1
_chemical_formula_structural   LiF
_chemical_formula_sum   'Li43 F43'
_cell_volume   1016.12812073
_cell_formula_units_Z   43
loop_
 _symmetry_equiv_pos_site_id
 _symmetry_equiv_pos_as_xyz
  1  'x, y, z'
loop_
 _atom_site_type_symbol
 _atom_site_label
 _atom_site_symmetry_multiplicity
 _atom_site_fract_x
 _atom_site_fract_y
 _atom_site_fract_z
 _atom_site_occupancy
  F  F0  1  0.30480119  0.02481257  0.81036061  1
  F  F1  1  0.97518743  0.27998861  0.81036061  1
  F  F2  1  0.72001139  0.69519881  0.81036061  1
  F  F3  1  0.97518743  0.69519881  0.18963939  1
  F  F4  1  0.72001139  0.02481257  0.18963939  1
  F  F5  1  0.30480119  0.27998861  0.18963939  1
  F  F6  1  0.00204121  0.31998952  0.05710767  1
  F  F7  1  0.68001048  0.68205170  0.05710767  1
  F  F8  1  0.31794830  0.99795879  0.05710767  1
  F  F9  1  0.68001048  0.99795879  0.94289233  1
  F  F10  1  0.31794830  0.31998952  0.94289233  1
  F  F11  1  0.00204121  0.68205170  0.94289233  1
  F  F12  1  0.13291547  0.67957978  0.02739872  1
  F  F13  1  0.32042022  0.45333569  0.02739872  1
  F  F14  1  0.54666431  0.86708453  0.02739872  1
  F  F15  1  0.32042022  0.86708453  0.97260128  1
  F  F16  1  0.54666431  0.67957978  0.97260128  1
  F  F17  1  0.13291547  0.45333569  0.97260128  1
  F  F18  1  0.82389544  0.99395709  0.45135649  1
  F  F19  1  0.00604291  0.82993835  0.45135649  1
  F  F20  1  0.17006165  0.17610456  0.45135649  1
  F  F21  1  0.00604291  0.17610456  0.54864351  1
  F  F22  1  0.17006165  0.99395709  0.54864351  1
  F  F23  1  0.82389544  0.82993835  0.54864351  1
  F  F24  1  0.34551062  0.55361291  0.81333070  1
  F  F25  1  0.44638709  0.79189771  0.81333070  1
  F  F26  1  0.20810229  0.65448938  0.81333070  1
  F  F27  1  0.44638709  0.65448938  0.18666930  1
  F  F28  1  0.20810229  0.55361291  0.18666930  1
  F  F29  1  0.34551062  0.79189771  0.18666930  1
  F  F30  1  0.90698988  0.48070951  0.36621585  1
  F  F31  1  0.51929049  0.42628037  0.36621585  1
  F  F32  1  0.57371963  0.09301012  0.36621585  1
  F  F33  1  0.51929049  0.09301012  0.63378415  1
  F  F34  1  0.57371963  0.48070951  0.63378415  1
  F  F35  1  0.90698988  0.42628037  0.63378415  1
  F  F36  1  0.02175836  0.74846001  0.42160110  1
  F  F37  1  0.25153999  0.27329835  0.42160110  1
  F  F38  1  0.72670165  0.97824164  0.42160110  1
  F  F39  1  0.25153999  0.97824164  0.57839890  1
  F  F40  1  0.72670165  0.74846001  0.57839890  1
  F  F41  1  0.02175836  0.27329835  0.57839890  1
  F  F42  1  0.33333333  0.66666667  0.50000000  1
  Li  Li43  1  0.81802638  0.18197362  0.00000000  1
  Li  Li44  1  0.81802638  0.63605276  0.00000000  1
  Li  Li45  1  0.36394724  0.18197362  0.00000000  1
  Li  Li46  1  0.95707811  0.41413470  0.39897656  1
  Li  Li47  1  -0.41413470  0.54294341  0.39897656  1
  Li  Li48  1  -0.54294341  -0.95707811  0.39897656  1
  Li  Li49  1  -0.41413470  -0.95707811  -0.39897656  1
  Li  Li50  1  -0.54294341  0.41413470  -0.39897656  1
  Li  Li51  1  0.95707811  0.54294341  -0.39897656  1
  Li  Li52  1  0.00000000  0.00000000  0.00000000  1
  Li  Li53  1  0.17682536  0.07631937  0.73928278  1
  Li  Li54  1  0.92368063  0.10050599  0.73928278  1
  Li  Li55  1  0.89949401  0.82317464  0.73928278  1
  Li  Li56  1  0.92368063  0.82317464  0.26071722  1
  Li  Li57  1  0.89949401  0.07631937  0.26071722  1
  Li  Li58  1  0.17682536  0.10050599  0.26071722  1
  Li  Li59  1  0.10572042  0.04530712  0.58656052  1
  Li  Li60  1  0.95469288  0.06041330  0.58656052  1
  Li  Li61  1  0.93958670  0.89427958  0.58656052  1
  Li  Li62  1  0.95469288  0.89427958  0.41343948  1
  Li  Li63  1  0.93958670  0.04530712  0.41343948  1
  Li  Li64  1  0.10572042  0.06041330  0.41343948  1
  Li  Li65  1  0.54738205  0.93213891  0.45599933  1
  Li  Li66  1  0.06786109  0.61524314  0.45599933  1
  Li  Li67  1  0.38475686  0.45261795  0.45599933  1
  Li  Li68  1  0.06786109  0.45261795  0.54400067  1
  Li  Li69  1  0.38475686  0.93213891  0.54400067  1
  Li  Li70  1  0.54738205  0.61524314  0.54400067  1
  Li  Li71  1  0.20280983  0.17452796  0.98117248  1
  Li  Li72  1  0.82547204  0.02828187  0.98117248  1
  Li  Li73  1  0.97171813  0.79719017  0.98117248  1
  Li  Li74  1  0.82547204  0.79719017  0.01882752  1
  Li  Li75  1  0.97171813  0.17452796  0.01882752  1
  Li  Li76  1  0.20280983  0.02828187  0.01882752  1
  Li  Li77  1  0.60928627  0.87219249  0.68165085  1
  Li  Li78  1  0.12780751  0.73709379  0.68165085  1
  Li  Li79  1  0.26290621  0.39071373  0.68165085  1
  Li  Li80  1  0.12780751  0.39071373  0.31834915  1
  Li  Li81  1  0.26290621  0.87219249  0.31834915  1
  Li  Li82  1  0.60928627  0.73709379  0.31834915  1
  Li  Li83  1  0.50514475  0.49485525  0.00000000  1
  Li  Li84  1  0.50514475  0.01028949  0.00000000  1
  Li  Li85  1  0.98971051  0.49485525  0.00000000  1
