# generated using pymatgen
data_LiF
_symmetry_space_group_name_H-M   'P 1'
_cell_length_a   14.62179045
_cell_length_b   14.62179045
_cell_length_c   4.83865377
_cell_angle_alpha   90.00000000
_cell_angle_beta   90.00000000
_cell_angle_gamma   120.00000000
_symmetry_Int_Tables_number   1
_chemical_formula_structural   LiF
_chemical_formula_sum   'Li32 F32'
_cell_volume   895.89330280
_cell_formula_units_Z   32
loop_
 _symmetry_equiv_pos_site_id
 _symmetry_equiv_pos_as_xyz
  1  'x, y, z'
loop_
 _atom_site_type_symbol
 _atom_site_label
 _atom_site_symmetry_multiplicity
 _atom_site_fract_x
 _atom_site_fract_y
 _atom_site_fract_z
 _atom_site_occupancy
  F  F0  1  0.57550365  0.54356698  0.61066743  1
  F  F1  1  0.45643302  0.03193667  0.61066743  1
  F  F2  1  0.96806333  0.42449635  0.61066743  1
  F  F3  1  0.45643302  0.42449635  0.38933257  1
  F  F4  1  0.96806333  0.54356698  0.38933257  1
  F  F5  1  0.57550365  0.03193667  0.38933257  1
  F  F6  1  0.58386089  0.18868890  0.06297094  1
  F  F7  1  0.81131110  0.39517198  0.06297094  1
  F  F8  1  0.60482802  0.41613911  0.06297094  1
  F  F9  1  0.81131110  0.41613911  0.93702906  1
  F  F10  1  0.60482802  0.18868890  0.93702906  1
  F  F11  1  0.58386089  0.39517198  0.93702906  1
  F  F12  1  0.52959730  0.92747022  0.31872989  1
  F  F13  1  0.07252978  0.60212708  0.31872989  1
  F  F14  1  0.39787292  0.47040270  0.31872989  1
  F  F15  1  0.07252978  0.47040270  0.68127011  1
  F  F16  1  0.39787292  0.92747022  0.68127011  1
  F  F17  1  0.52959730  0.60212708  0.68127011  1
  F  F18  1  0.52571727  0.27583432  0.15640228  1
  F  F19  1  0.72416568  0.24988295  0.15640228  1
  F  F20  1  0.75011705  0.47428273  0.15640228  1
  F  F21  1  0.72416568  0.47428273  0.84359772  1
  F  F22  1  0.75011705  0.27583432  0.84359772  1
  F  F23  1  0.52571727  0.24988295  0.84359772  1
  F  F24  1  0.79601706  0.98957559  0.63714114  1
  F  F25  1  0.01042441  0.80644147  0.63714114  1
  F  F26  1  0.19355853  0.20398294  0.63714114  1
  F  F27  1  0.01042441  0.20398294  0.36285886  1
  F  F28  1  0.19355853  0.98957559  0.36285886  1
  F  F29  1  0.79601706  0.80644147  0.36285886  1
  F  F30  1  0.66666667  0.33333333  0.50000000  1
  F  F31  1  0.00000000  0.00000000  0.00000000  1
  Li  Li32  1  0.92348792  0.28798152  0.58910494  1
  Li  Li33  1  -0.28798152  0.63550641  0.58910494  1
  Li  Li34  1  -0.63550641  -0.92348792  0.58910494  1
  Li  Li35  1  -0.28798152  -0.92348792  -0.58910494  1
  Li  Li36  1  -0.63550641  0.28798152  -0.58910494  1
  Li  Li37  1  0.92348792  0.63550641  -0.58910494  1
  Li  Li38  1  0.89912217  0.53335451  0.52148731  1
  Li  Li39  1  0.46664549  0.36576765  0.52148731  1
  Li  Li40  1  0.63423235  0.10087783  0.52148731  1
  Li  Li41  1  0.46664549  0.10087783  0.47851269  1
  Li  Li42  1  0.63423235  0.53335451  0.47851269  1
  Li  Li43  1  0.89912217  0.36576765  0.47851269  1
  Li  Li44  1  0.33333333  0.66666667  0.82977372  1
  Li  Li45  1  0.33333333  0.66666667  0.17022628  1
  Li  Li46  1  0.39771704  0.67695592  0.37189703  1
  Li  Li47  1  0.32304408  0.72076112  0.37189703  1
  Li  Li48  1  0.27923888  0.60228296  0.37189703  1
  Li  Li49  1  0.32304408  0.60228296  0.62810297  1
  Li  Li50  1  0.27923888  0.67695592  0.62810297  1
  Li  Li51  1  0.39771704  0.72076112  0.62810297  1
  Li  Li52  1  0.00000000  0.00000000  0.64603870  1
  Li  Li53  1  0.00000000  0.00000000  0.35396130  1
  Li  Li54  1  0.28159201  0.79735714  0.17551563  1
  Li  Li55  1  0.20264286  0.48423487  0.17551563  1
  Li  Li56  1  0.51576513  0.71840799  0.17551563  1
  Li  Li57  1  0.20264286  0.71840799  0.82448437  1
  Li  Li58  1  0.51576513  0.79735714  0.82448437  1
  Li  Li59  1  0.28159201  0.48423487  0.82448437  1
  Li  Li60  1  0.14539399  0.85460601  0.00000000  1
  Li  Li61  1  0.14539399  0.29078797  0.00000000  1
  Li  Li62  1  0.70921203  0.85460601  -0.00000000  1
  Li  Li63  1  0.66666667  0.33333333  0.00000000  1
