# generated using pymatgen
data_LiF
_symmetry_space_group_name_H-M   'P 1'
_cell_length_a   8.49880755
_cell_length_b   8.49880755
_cell_length_c   12.27781373
_cell_angle_alpha   90.00000000
_cell_angle_beta   90.00000000
_cell_angle_gamma   90.00000000
_symmetry_Int_Tables_number   1
_chemical_formula_structural   LiF
_chemical_formula_sum   'Li32 F32'
_cell_volume   886.82316912
_cell_formula_units_Z   32
loop_
 _symmetry_equiv_pos_site_id
 _symmetry_equiv_pos_as_xyz
  1  'x, y, z'
loop_
 _atom_site_type_symbol
 _atom_site_label
 _atom_site_symmetry_multiplicity
 _atom_site_fract_x
 _atom_site_fract_y
 _atom_site_fract_z
 _atom_site_occupancy
  F  F0  1  0.00000000  0.25000000  0.37500000  1
  F  F1  1  0.00000000  0.75000000  0.62500000  1
  F  F2  1  0.50000000  0.25000000  0.62500000  1
  F  F3  1  0.50000000  0.75000000  0.37500000  1
  F  F4  1  0.50000000  0.75000000  0.87500000  1
  F  F5  1  0.50000000  0.25000000  0.12500000  1
  F  F6  1  0.00000000  0.75000000  0.12500000  1
  F  F7  1  0.00000000  0.25000000  0.87500000  1
  F  F8  1  0.35436169  0.60436169  0.12500000  1
  F  F9  1  0.14563831  0.39563831  0.62500000  1
  F  F10  1  0.64563831  0.10436169  0.37500000  1
  F  F11  1  0.85436169  0.89563831  0.87500000  1
  F  F12  1  0.64563831  0.39563831  0.87500000  1
  F  F13  1  0.85436169  0.60436169  0.37500000  1
  F  F14  1  0.35436169  0.89563831  0.62500000  1
  F  F15  1  0.14563831  0.10436169  0.12500000  1
  F  F16  1  0.85436169  0.10436169  0.62500000  1
  F  F17  1  0.64563831  0.89563831  0.12500000  1
  F  F18  1  0.14563831  0.60436169  0.87500000  1
  F  F19  1  0.35436169  0.39563831  0.37500000  1
  F  F20  1  0.14563831  0.89563831  0.37500000  1
  F  F21  1  0.35436169  0.10436169  0.87500000  1
  F  F22  1  0.85436169  0.39563831  0.12500000  1
  F  F23  1  0.64563831  0.60436169  0.62500000  1
  F  F24  1  0.00000000  0.25000000  0.12500000  1
  F  F25  1  0.00000000  0.75000000  0.37500000  1
  F  F26  1  0.00000000  0.75000000  0.87500000  1
  F  F27  1  0.00000000  0.25000000  0.62500000  1
  F  F28  1  0.50000000  0.75000000  0.62500000  1
  F  F29  1  0.50000000  0.25000000  0.87500000  1
  F  F30  1  0.50000000  0.25000000  0.37500000  1
  F  F31  1  0.50000000  0.75000000  0.12500000  1
  Li  Li32  1  0.77879400  0.80324231  0.30886998  1
  Li  Li33  1  -0.27879400  -0.80324231  0.80886998  1
  Li  Li34  1  -0.55324231  1.52879400  0.55886998  1
  Li  Li35  1  1.05324231  -0.52879400  1.05886998  1
  Li  Li36  1  -0.27879400  0.80324231  -0.30886998  1
  Li  Li37  1  0.77879400  -0.80324231  0.19113002  1
  Li  Li38  1  1.05324231  1.52879400  0.44113002  1
  Li  Li39  1  -0.55324231  -0.52879400  -0.05886998  1
  Li  Li40  1  -0.77879400  -0.80324231  -0.30886998  1
  Li  Li41  1  1.27879400  0.80324231  0.19113002  1
  Li  Li42  1  1.55324231  -0.52879400  0.44113002  1
  Li  Li43  1  -0.05324231  1.52879400  -0.05886998  1
  Li  Li44  1  1.27879400  -0.80324231  0.30886998  1
  Li  Li45  1  -0.77879400  0.80324231  0.80886998  1
  Li  Li46  1  -0.05324231  -0.52879400  0.55886998  1
  Li  Li47  1  1.55324231  1.52879400  1.05886998  1
  Li  Li48  1  1.27879400  1.30324231  0.80886998  1
  Li  Li49  1  0.22120600  -0.30324231  1.30886998  1
  Li  Li50  1  -0.05324231  2.02879400  1.05886998  1
  Li  Li51  1  1.55324231  -0.02879400  1.55886998  1
  Li  Li52  1  0.22120600  1.30324231  0.19113002  1
  Li  Li53  1  1.27879400  -0.30324231  0.69113002  1
  Li  Li54  1  1.55324231  2.02879400  0.94113002  1
  Li  Li55  1  -0.05324231  -0.02879400  0.44113002  1
  Li  Li56  1  -0.27879400  -0.30324231  0.19113002  1
  Li  Li57  1  1.77879400  1.30324231  0.69113002  1
  Li  Li58  1  2.05324231  -0.02879400  0.94113002  1
  Li  Li59  1  0.44675769  2.02879400  0.44113002  1
  Li  Li60  1  1.77879400  -0.30324231  0.80886998  1
  Li  Li61  1  -0.27879400  1.30324231  1.30886998  1
  Li  Li62  1  0.44675769  -0.02879400  1.05886998  1
  Li  Li63  1  2.05324231  2.02879400  1.55886998  1
