# generated using pymatgen
data_LiF
_symmetry_space_group_name_H-M   'P 1'
_cell_length_a   13.52613931
_cell_length_b   9.92304348
_cell_length_c   4.37673404
_cell_angle_alpha   90.00000000
_cell_angle_beta   90.00000000
_cell_angle_gamma   90.00000000
_symmetry_Int_Tables_number   1
_chemical_formula_structural   LiF
_chemical_formula_sum   'Li24 F24'
_cell_volume   587.44729384
_cell_formula_units_Z   24
loop_
 _symmetry_equiv_pos_site_id
 _symmetry_equiv_pos_as_xyz
  1  'x, y, z'
loop_
 _atom_site_type_symbol
 _atom_site_label
 _atom_site_symmetry_multiplicity
 _atom_site_fract_x
 _atom_site_fract_y
 _atom_site_fract_z
 _atom_site_occupancy
  F  F0  1  0.58217793  0.82409735  -0.00000000  1
  F  F1  1  0.41782207  0.17590265  -0.00000000  1
  F  F2  1  0.91782207  0.32409735  0.50000000  1
  F  F3  1  0.08217793  0.67590265  0.50000000  1
  F  F4  1  0.74076500  0.97160143  0.91992623  1
  F  F5  1  0.25923500  0.02839857  0.91992623  1
  F  F6  1  0.75923500  0.47160143  0.58007377  1
  F  F7  1  0.24076500  0.52839857  0.58007377  1
  F  F8  1  0.25923500  0.02839857  0.08007377  1
  F  F9  1  0.74076500  0.97160143  0.08007377  1
  F  F10  1  0.24076500  0.52839857  0.41992623  1
  F  F11  1  0.75923500  0.47160143  0.41992623  1
  F  F12  1  0.00000000  0.50000000  0.50000000  1
  F  F13  1  0.50000000  0.00000000  0.00000000  1
  F  F14  1  0.96426607  0.29862133  0.86868988  1
  F  F15  1  0.03573393  0.70137867  0.86868988  1
  F  F16  1  0.53573393  0.79862133  0.63131012  1
  F  F17  1  0.46426607  0.20137867  0.63131012  1
  F  F18  1  0.03573393  0.70137867  0.13131012  1
  F  F19  1  0.96426607  0.29862133  0.13131012  1
  F  F20  1  0.46426607  0.20137867  0.36868988  1
  F  F21  1  0.53573393  0.79862133  0.36868988  1
  F  F22  1  0.00000000  0.00000000  0.50000000  1
  F  F23  1  0.50000000  0.50000000  0.00000000  1
  Li  Li24  1  0.00095512  0.08903381  -0.00000000  1
  Li  Li25  1  0.99904488  0.91096619  0.00000000  1
  Li  Li26  1  0.49904488  0.58903381  0.50000000  1
  Li  Li27  1  0.50095512  0.41096619  0.50000000  1
  Li  Li28  1  0.30880943  0.30520702  0.66380843  1
  Li  Li29  1  -0.30880943  -0.30520702  0.66380843  1
  Li  Li30  1  0.19119057  0.80520702  -0.16380843  1
  Li  Li31  1  0.80880943  0.19479298  -0.16380843  1
  Li  Li32  1  -0.30880943  -0.30520702  -0.66380843  1
  Li  Li33  1  0.30880943  0.30520702  -0.66380843  1
  Li  Li34  1  0.80880943  0.19479298  1.16380843  1
  Li  Li35  1  0.19119057  0.80520702  1.16380843  1
  Li  Li36  1  0.68286069  0.44261621  -0.00000000  1
  Li  Li37  1  0.31713931  0.55738379  0.00000000  1
  Li  Li38  1  0.81713931  0.94261621  0.50000000  1
  Li  Li39  1  0.18286069  0.05738379  0.50000000  1
  Li  Li40  1  0.80856343  0.59818520  0.00000000  1
  Li  Li41  1  0.19143657  0.40181480  0.00000000  1
  Li  Li42  1  0.69143657  0.09818520  0.50000000  1
  Li  Li43  1  0.30856343  0.90181480  0.50000000  1
  Li  Li44  1  0.92268580  0.58338549  0.00000000  1
  Li  Li45  1  0.07731420  0.41661451  0.00000000  1
  Li  Li46  1  0.57731420  0.08338549  0.50000000  1
  Li  Li47  1  0.42268580  0.91661451  0.50000000  1
