# generated using pymatgen
data_LiF
_symmetry_space_group_name_H-M   'P 1'
_cell_length_a   8.08721607
_cell_length_b   7.88490747
_cell_length_c   10.76446095
_cell_angle_alpha   90.00000000
_cell_angle_beta   90.00000000
_cell_angle_gamma   90.00000000
_symmetry_Int_Tables_number   1
_chemical_formula_structural   LiF
_chemical_formula_sum   'Li26 F26'
_cell_volume   686.41684725
_cell_formula_units_Z   26
loop_
 _symmetry_equiv_pos_site_id
 _symmetry_equiv_pos_as_xyz
  1  'x, y, z'
loop_
 _atom_site_type_symbol
 _atom_site_label
 _atom_site_symmetry_multiplicity
 _atom_site_fract_x
 _atom_site_fract_y
 _atom_site_fract_z
 _atom_site_occupancy
  F  F0  1  0.50805085  0.30973909  0.04470919  1
  F  F1  1  -0.50805085  -0.30973909  0.04470919  1
  F  F2  1  -0.00805085  0.80973909  0.45529081  1
  F  F3  1  1.00805085  0.19026091  0.45529081  1
  F  F4  1  -0.50805085  -0.30973909  -0.04470919  1
  F  F5  1  0.50805085  0.30973909  -0.04470919  1
  F  F6  1  1.00805085  0.19026091  0.54470919  1
  F  F7  1  -0.00805085  0.80973909  0.54470919  1
  F  F8  1  0.92696093  0.64588677  0.21910503  1
  F  F9  1  0.07303907  0.35411323  0.21910503  1
  F  F10  1  0.57303907  0.14588677  0.28089497  1
  F  F11  1  0.42696093  0.85411323  0.28089497  1
  F  F12  1  0.07303907  0.35411323  0.78089497  1
  F  F13  1  0.92696093  0.64588677  0.78089497  1
  F  F14  1  0.42696093  0.85411323  0.71910503  1
  F  F15  1  0.57303907  0.14588677  0.71910503  1
  F  F16  1  0.00000000  0.00000000  0.11137943  1
  F  F17  1  0.50000000  0.50000000  0.38862057  1
  F  F18  1  0.00000000  0.00000000  0.88862057  1
  F  F19  1  0.50000000  0.50000000  0.61137943  1
  F  F20  1  0.00000000  0.50000000  0.50000000  1
  F  F21  1  0.50000000  0.00000000  0.00000000  1
  F  F22  1  0.75241357  0.37967803  0.00000000  1
  F  F23  1  0.24758643  0.62032197  0.00000000  1
  F  F24  1  0.74758643  0.87967803  0.50000000  1
  F  F25  1  0.25241357  0.12032197  0.50000000  1
  Li  Li26  1  0.30809805  0.37505494  0.00000000  1
  Li  Li27  1  0.69190195  0.62494506  0.00000000  1
  Li  Li28  1  0.19190195  0.87505494  0.50000000  1
  Li  Li29  1  0.80809805  0.12494506  0.50000000  1
  Li  Li30  1  0.84491848  0.57390655  0.26783669  1
  Li  Li31  1  0.15508152  0.42609345  0.26783669  1
  Li  Li32  1  0.65508152  0.07390655  0.23216331  1
  Li  Li33  1  0.34491848  0.92609345  0.23216331  1
  Li  Li34  1  0.15508152  0.42609345  0.73216331  1
  Li  Li35  1  0.84491848  0.57390655  0.73216331  1
  Li  Li36  1  0.34491848  0.92609345  0.76783669  1
  Li  Li37  1  0.65508152  0.07390655  0.76783669  1
  Li  Li38  1  0.00000000  0.00000000  0.00000000  1
  Li  Li39  1  0.50000000  0.50000000  0.50000000  1
  Li  Li40  1  0.00000000  0.50000000  0.00000000  1
  Li  Li41  1  0.50000000  0.00000000  0.50000000  1
  Li  Li42  1  0.29994874  0.20092374  0.40430195  1
  Li  Li43  1  0.70005126  0.79907626  0.40430195  1
  Li  Li44  1  0.20005126  0.70092374  0.09569805  1
  Li  Li45  1  0.79994874  0.29907626  0.09569805  1
  Li  Li46  1  0.70005126  0.79907626  0.59569805  1
  Li  Li47  1  0.29994874  0.20092374  0.59569805  1
  Li  Li48  1  0.79994874  0.29907626  0.90430195  1
  Li  Li49  1  0.20005126  0.70092374  0.90430195  1
  Li  Li50  1  0.00000000  0.00000000  0.50000000  1
  Li  Li51  1  0.50000000  0.50000000  -0.00000000  1
