# generated using pymatgen
data_Li2Cu3Te4P2Se
_symmetry_space_group_name_H-M   'P 1'
_cell_length_a   5.05108877
_cell_length_b   5.34127980
_cell_length_c   6.77868584
_cell_angle_alpha   94.41919113
_cell_angle_beta   98.44925579
_cell_angle_gamma   104.79286190
_symmetry_Int_Tables_number   1
_chemical_formula_structural   Li2Cu3Te4P2Se
_chemical_formula_sum   'Li2 Cu3 Te4 P2 Se1'
_cell_volume   173.64366291
_cell_formula_units_Z   1
loop_
 _symmetry_equiv_pos_site_id
 _symmetry_equiv_pos_as_xyz
  1  'x, y, z'
loop_
 _atom_site_type_symbol
 _atom_site_label
 _atom_site_symmetry_multiplicity
 _atom_site_fract_x
 _atom_site_fract_y
 _atom_site_fract_z
 _atom_site_occupancy
  Se  Se0  1  0.00000000  0.00000000  0.00000000  1
  Te  Te1  1  0.50000000  0.50000000  0.50000000  1
  Te  Te2  1  0.25000000  0.25000000  0.25000000  1
  Te  Te3  1  0.75000000  0.25000000  0.00000000  1
  Te  Te4  1  0.25000000  0.75000000  0.50000000  1
  Cu  Cu5  1  0.70143520  0.32770124  0.50293422  1
  Cu  Cu6  1  0.29824243  0.98878410  0.49753318  1
  Cu  Cu7  1  0.00024782  0.34234738  0.03097727  1
  P  P8  1  0.45713439  0.14927775  0.22723956  1
  P  P9  1  0.80579545  0.50554405  0.41633092  1
  Li  Li10  1  0.60689821  0.17167431  0.23901882  1
  Li  Li11  1  0.36440379  0.00639804  0.34314959  1
