# generated using pymatgen
data_LiF
_symmetry_space_group_name_H-M   'P 1'
_cell_length_a   11.57656847
_cell_length_b   6.19157960
_cell_length_c   6.36150400
_cell_angle_alpha   90.00000000
_cell_angle_beta   90.00000000
_cell_angle_gamma   90.00000000
_symmetry_Int_Tables_number   1
_chemical_formula_structural   LiF
_chemical_formula_sum   'Li24 F24'
_cell_volume   455.97508222
_cell_formula_units_Z   24
loop_
 _symmetry_equiv_pos_site_id
 _symmetry_equiv_pos_as_xyz
  1  'x, y, z'
loop_
 _atom_site_type_symbol
 _atom_site_label
 _atom_site_symmetry_multiplicity
 _atom_site_fract_x
 _atom_site_fract_y
 _atom_site_fract_z
 _atom_site_occupancy
  F  F0  1  0.00000000  0.50000000  0.50000000  1
  F  F1  1  0.50000000  0.00000000  0.00000000  1
  F  F2  1  0.13033810  0.60774482  0.00000000  1
  F  F3  1  0.86966190  0.39225518  0.00000000  1
  F  F4  1  0.36966190  0.10774482  0.50000000  1
  F  F5  1  0.63033810  0.89225518  0.50000000  1
  F  F6  1  0.00000000  0.00000000  0.50000000  1
  F  F7  1  0.50000000  0.50000000  0.00000000  1
  F  F8  1  0.94762126  0.63439014  0.58782934  1
  F  F9  1  -0.94762126  -0.63439014  0.58782934  1
  F  F10  1  -0.44762126  1.13439014  -0.08782934  1
  F  F11  1  1.44762126  -0.13439014  -0.08782934  1
  F  F12  1  -0.94762126  -0.63439014  -0.58782934  1
  F  F13  1  0.94762126  0.63439014  -0.58782934  1
  F  F14  1  1.44762126  -0.13439014  1.08782934  1
  F  F15  1  -0.44762126  1.13439014  1.08782934  1
  F  F16  1  0.13733992  0.30958299  0.11347420  1
  F  F17  1  0.86266008  0.69041701  0.11347420  1
  F  F18  1  0.36266008  0.80958299  0.38652580  1
  F  F19  1  0.63733992  0.19041701  0.38652580  1
  F  F20  1  0.86266008  0.69041701  0.88652580  1
  F  F21  1  0.13733992  0.30958299  0.88652580  1
  F  F22  1  0.63733992  0.19041701  0.61347420  1
  F  F23  1  0.36266008  0.80958299  0.61347420  1
  Li  Li24  1  0.56630441  0.61187332  0.16802637  1
  Li  Li25  1  0.43369559  0.38812668  0.16802637  1
  Li  Li26  1  0.93369559  0.11187332  0.33197363  1
  Li  Li27  1  0.06630441  0.88812668  0.33197363  1
  Li  Li28  1  0.43369559  0.38812668  0.83197363  1
  Li  Li29  1  0.56630441  0.61187332  0.83197363  1
  Li  Li30  1  0.06630441  0.88812668  0.66802637  1
  Li  Li31  1  0.93369559  0.11187332  0.66802637  1
  Li  Li32  1  0.48278695  0.30550755  -0.00000000  1
  Li  Li33  1  0.51721305  0.69449245  0.00000000  1
  Li  Li34  1  0.01721305  0.80550755  0.50000000  1
  Li  Li35  1  0.98278695  0.19449245  0.50000000  1
  Li  Li36  1  0.93879400  0.76063310  -0.00000000  1
  Li  Li37  1  0.06120600  0.23936690  0.00000000  1
  Li  Li38  1  0.56120600  0.26063310  0.50000000  1
  Li  Li39  1  0.43879400  0.73936690  0.50000000  1
  Li  Li40  1  0.83498847  0.96836968  0.00000000  1
  Li  Li41  1  0.16501153  0.03163032  0.00000000  1
  Li  Li42  1  0.66501153  0.46836968  0.50000000  1
  Li  Li43  1  0.33498847  0.53163032  0.50000000  1
  Li  Li44  1  0.00000000  0.50000000  0.00000000  1
  Li  Li45  1  0.50000000  0.00000000  0.50000000  1
  Li  Li46  1  0.00000000  0.00000000  0.00000000  1
  Li  Li47  1  0.50000000  0.50000000  0.50000000  1
