# generated using pymatgen
data_LiYAs2P
_symmetry_space_group_name_H-M   'P 1'
_cell_length_a   4.86015017
_cell_length_b   5.03522982
_cell_length_c   6.96794802
_cell_angle_alpha   95.00318015
_cell_angle_beta   100.89588622
_cell_angle_gamma   110.09578618
_symmetry_Int_Tables_number   1
_chemical_formula_structural   LiYAs2P
_chemical_formula_sum   'Li2 Y2 As4 P2'
_cell_volume   155.09594019
_cell_formula_units_Z   2
loop_
 _symmetry_equiv_pos_site_id
 _symmetry_equiv_pos_as_xyz
  1  'x, y, z'
loop_
 _atom_site_type_symbol
 _atom_site_label
 _atom_site_symmetry_multiplicity
 _atom_site_fract_x
 _atom_site_fract_y
 _atom_site_fract_z
 _atom_site_occupancy
  P  P0  1  0.00000000  0.00000000  0.00000000  1
  P  P1  1  0.50000000  0.50000000  0.50000000  1
  As  As2  1  0.25000000  0.25000000  0.25000000  1
  As  As3  1  0.75000000  0.25000000  0.00000000  1
  As  As4  1  0.25000000  0.75000000  0.50000000  1
  As  As5  1  0.74337968  0.18808539  0.65255320  1
  Li  Li6  1  0.12575036  0.43404864  0.20688663  1
  Li  Li7  1  0.78617805  0.56115291  0.20744523  1
  Y  Y8  1  0.42544801  0.37224693  0.67505780  1
  Y  Y9  1  0.22333554  0.29403516  0.99007291  1
