# generated using pymatgen
data_Li2YP3Se2
_symmetry_space_group_name_H-M   'P 1'
_cell_length_a   5.62498675
_cell_length_b   5.77459584
_cell_length_c   7.48112094
_cell_angle_alpha   94.71693796
_cell_angle_beta   99.61280597
_cell_angle_gamma   105.74011607
_symmetry_Int_Tables_number   1
_chemical_formula_structural   Li2YP3Se2
_chemical_formula_sum   'Li2 Y1 P3 Se2'
_cell_volume   228.51388276
_cell_formula_units_Z   1
loop_
 _symmetry_equiv_pos_site_id
 _symmetry_equiv_pos_as_xyz
  1  'x, y, z'
loop_
 _atom_site_type_symbol
 _atom_site_label
 _atom_site_symmetry_multiplicity
 _atom_site_fract_x
 _atom_site_fract_y
 _atom_site_fract_z
 _atom_site_occupancy
  Se  Se0  1  0.00000000  0.00000000  0.00000000  1
  Se  Se1  1  0.50000000  0.50000000  0.50000000  1
  P  P2  1  0.50000000  0.50000000  0.00000000  1
  P  P3  1  0.50000000  0.00000000  0.50000000  1
  P  P4  1  0.00000000  0.50000000  0.50000000  1
  Li  Li5  1  0.88983404  0.62803603  0.56307754  1
  Li  Li6  1  0.01698815  0.35130733  0.62304699  1
  Y  Y7  1  0.31205482  0.66884698  0.97086043  1
