# generated using pymatgen
data_LiF
_symmetry_space_group_name_H-M   'P 1'
_cell_length_a   14.18171805
_cell_length_b   14.18171805
_cell_length_c   4.20017283
_cell_angle_alpha   90.00000000
_cell_angle_beta   90.00000000
_cell_angle_gamma   120.00000000
_symmetry_Int_Tables_number   1
_chemical_formula_structural   LiF
_chemical_formula_sum   'Li26 F26'
_cell_volume   731.56932383
_cell_formula_units_Z   26
loop_
 _symmetry_equiv_pos_site_id
 _symmetry_equiv_pos_as_xyz
  1  'x, y, z'
loop_
 _atom_site_type_symbol
 _atom_site_label
 _atom_site_symmetry_multiplicity
 _atom_site_fract_x
 _atom_site_fract_y
 _atom_site_fract_z
 _atom_site_occupancy
  F  F0  1  0.85070039  0.55938527  0.56144154  1
  F  F1  1  0.44061473  0.29131512  0.56144154  1
  F  F2  1  0.70868488  0.14929961  0.56144154  1
  F  F3  1  0.44061473  0.14929961  0.43855846  1
  F  F4  1  0.70868488  0.55938527  0.43855846  1
  F  F5  1  0.85070039  0.29131512  0.43855846  1
  F  F6  1  0.07260654  0.92739346  0.00000000  1
  F  F7  1  0.07260654  0.14521309  0.00000000  1
  F  F8  1  0.85478691  0.92739346  0.00000000  1
  F  F9  1  0.33333333  0.66666667  0.69523615  1
  F  F10  1  0.33333333  0.66666667  0.30476385  1
  F  F11  1  0.25936161  0.02079908  0.15239958  1
  F  F12  1  0.97920092  0.23856254  0.15239958  1
  F  F13  1  0.76143746  0.74063839  0.15239958  1
  F  F14  1  0.97920092  0.74063839  0.84760042  1
  F  F15  1  0.76143746  0.02079908  0.84760042  1
  F  F16  1  0.25936161  0.23856254  0.84760042  1
  F  F17  1  0.03894375  0.96156608  0.35955305  1
  F  F18  1  0.03843392  0.07737767  0.35955305  1
  F  F19  1  0.92262233  0.96105625  0.35955305  1
  F  F20  1  0.03843392  0.96105625  0.64044695  1
  F  F21  1  0.92262233  0.96156608  0.64044695  1
  F  F22  1  0.03894375  0.07737767  0.64044695  1
  F  F23  1  0.13865349  0.86134651  0.50000000  1
  F  F24  1  0.13865349  0.27730698  0.50000000  1
  F  F25  1  0.72269302  0.86134651  0.50000000  1
  Li  Li26  1  0.66666667  0.33333333  0.00000000  1
  Li  Li27  1  0.33333333  0.66666667  0.00000000  1
  Li  Li28  1  0.08199672  0.56110413  0.76275983  1
  Li  Li29  1  -0.56110413  -0.47910741  0.76275983  1
  Li  Li30  1  0.47910741  -0.08199672  0.76275983  1
  Li  Li31  1  -0.56110413  -0.08199672  -0.76275983  1
  Li  Li32  1  0.47910741  0.56110413  -0.76275983  1
  Li  Li33  1  0.08199672  -0.47910741  -0.76275983  1
  Li  Li34  1  0.33326615  0.10228538  0.00472622  1
  Li  Li35  1  0.89771462  0.23098077  0.00472622  1
  Li  Li36  1  0.76901923  0.66673385  0.00472622  1
  Li  Li37  1  0.89771462  0.66673385  0.99527378  1
  Li  Li38  1  0.76901923  0.10228538  0.99527378  1
  Li  Li39  1  0.33326615  0.23098077  0.99527378  1
  Li  Li40  1  0.88739860  0.37091873  0.59702423  1
  Li  Li41  1  0.62908127  0.51647987  0.59702423  1
  Li  Li42  1  0.48352013  0.11260140  0.59702423  1
  Li  Li43  1  0.62908127  0.11260140  0.40297577  1
  Li  Li44  1  0.48352013  0.37091873  0.40297577  1
  Li  Li45  1  0.88739860  0.51647987  0.40297577  1
  Li  Li46  1  0.17434507  0.96084411  0.35821396  1
  Li  Li47  1  0.03915589  0.21350095  0.35821396  1
  Li  Li48  1  0.78649905  0.82565493  0.35821396  1
  Li  Li49  1  0.03915589  0.82565493  0.64178604  1
  Li  Li50  1  0.78649905  0.96084411  0.64178604  1
  Li  Li51  1  0.17434507  0.21350095  0.64178604  1
