# generated using pymatgen
data_Li2Y2MoP2
_symmetry_space_group_name_H-M   'P 1'
_cell_length_a   4.78313233
_cell_length_b   5.04948696
_cell_length_c   6.74455405
_cell_angle_alpha   94.89661496
_cell_angle_beta   99.63276163
_cell_angle_gamma   108.05080041
_symmetry_Int_Tables_number   1
_chemical_formula_structural   Li2Y2MoP2
_chemical_formula_sum   'Li2 Y2 Mo1 P2'
_cell_volume   151.05112991
_cell_formula_units_Z   1
loop_
 _symmetry_equiv_pos_site_id
 _symmetry_equiv_pos_as_xyz
  1  'x, y, z'
loop_
 _atom_site_type_symbol
 _atom_site_label
 _atom_site_symmetry_multiplicity
 _atom_site_fract_x
 _atom_site_fract_y
 _atom_site_fract_z
 _atom_site_occupancy
  P  P0  1  0.12500000  0.12500000  0.12500000  1
  P  P1  1  0.50000000  0.50000000  0.50000000  1
  Mo  Mo2  1  0.25000000  0.25000000  0.25000000  1
  Li  Li3  1  0.75000000  0.75000000  0.75000000  1
  Li  Li4  1  0.70419195  0.61110017  0.07703882  1
  Y  Y5  1  0.55861565  0.70069948  0.31101291  1
  Y  Y6  1  0.05172664  0.73349874  0.28108755  1
