# generated using pymatgen
data_LiF
_symmetry_space_group_name_H-M   'P 1'
_cell_length_a   15.33643866
_cell_length_b   15.33643866
_cell_length_c   8.25381772
_cell_angle_alpha   90.00000000
_cell_angle_beta   90.00000000
_cell_angle_gamma   120.00000000
_symmetry_Int_Tables_number   1
_chemical_formula_structural   LiF
_chemical_formula_sum   'Li73 F73'
_cell_volume   1681.25871680
_cell_formula_units_Z   73
loop_
 _symmetry_equiv_pos_site_id
 _symmetry_equiv_pos_as_xyz
  1  'x, y, z'
loop_
 _atom_site_type_symbol
 _atom_site_label
 _atom_site_symmetry_multiplicity
 _atom_site_fract_x
 _atom_site_fract_y
 _atom_site_fract_z
 _atom_site_occupancy
  F  F0  1  0.66666667  0.33333333  0.50000000  1
  F  F1  1  0.41536480  0.50501290  0.17807209  1
  F  F2  1  0.49498710  0.91035190  0.17807209  1
  F  F3  1  0.08964810  0.58463520  0.17807209  1
  F  F4  1  0.49498710  0.58463520  0.82192791  1
  F  F5  1  0.08964810  0.50501290  0.82192791  1
  F  F6  1  0.41536480  0.91035190  0.82192791  1
  F  F7  1  0.19664168  0.75358022  0.25590795  1
  F  F8  1  0.24641978  0.44306146  0.25590795  1
  F  F9  1  0.55693854  0.80335832  0.25590795  1
  F  F10  1  0.24641978  0.80335832  0.74409205  1
  F  F11  1  0.55693854  0.75358022  0.74409205  1
  F  F12  1  0.19664168  0.44306146  0.74409205  1
  F  F13  1  0.57622413  0.18079250  0.52803104  1
  F  F14  1  0.81920750  0.39543163  0.52803104  1
  F  F15  1  0.60456837  0.42377587  0.52803104  1
  F  F16  1  0.81920750  0.42377587  0.47196896  1
  F  F17  1  0.60456837  0.18079250  0.47196896  1
  F  F18  1  0.57622413  0.39543163  0.47196896  1
  F  F19  1  0.32524706  0.05033279  0.35347433  1
  F  F20  1  0.94966721  0.27491427  0.35347433  1
  F  F21  1  0.72508573  0.67475294  0.35347433  1
  F  F22  1  0.94966721  0.67475294  0.64652567  1
  F  F23  1  0.72508573  0.05033279  0.64652567  1
  F  F24  1  0.32524706  0.27491427  0.64652567  1
  F  F25  1  0.85510795  0.43231647  0.20315131  1
  F  F26  1  0.56768353  0.42279148  0.20315131  1
  F  F27  1  0.57720852  0.14489205  0.20315131  1
  F  F28  1  0.56768353  0.14489205  0.79684869  1
  F  F29  1  0.57720852  0.43231647  0.79684869  1
  F  F30  1  0.85510795  0.42279148  0.79684869  1
  F  F31  1  0.33333333  0.66666667  0.35114284  1
  F  F32  1  0.33333333  0.66666667  0.64885716  1
  F  F33  1  0.80316545  0.94882903  0.40988820  1
  F  F34  1  0.05117097  0.85433643  0.40988820  1
  F  F35  1  0.14566357  0.19683455  0.40988820  1
  F  F36  1  0.05117097  0.19683455  0.59011180  1
  F  F37  1  0.14566357  0.94882903  0.59011180  1
  F  F38  1  0.80316545  0.85433643  0.59011180  1
  F  F39  1  0.89014367  0.76559897  0.44066259  1
  F  F40  1  0.23440103  0.12454470  0.44066259  1
  F  F41  1  0.87545530  0.10985633  0.44066259  1
  F  F42  1  0.23440103  0.10985633  0.55933741  1
  F  F43  1  0.87545530  0.76559897  0.55933741  1
  F  F44  1  0.89014367  0.12454470  0.55933741  1
  F  F45  1  0.53913162  0.45798929  0.57753774  1
  F  F46  1  0.54201071  0.08114233  0.57753774  1
  F  F47  1  0.91885767  0.46086838  0.57753774  1
  F  F48  1  0.54201071  0.46086838  0.42246226  1
  F  F49  1  0.91885767  0.45798929  0.42246226  1
  F  F50  1  0.53913162  0.08114233  0.42246226  1
  F  F51  1  0.51404791  0.12653130  0.07003224  1
  F  F52  1  0.87346870  0.38751661  0.07003224  1
  F  F53  1  0.61248339  0.48595209  0.07003224  1
  F  F54  1  0.87346870  0.48595209  0.92996776  1
  F  F55  1  0.61248339  0.12653130  0.92996776  1
  F  F56  1  0.51404791  0.38751661  0.92996776  1
  F  F57  1  0.36452171  0.26498870  0.22383563  1
  F  F58  1  0.73501130  0.09953301  0.22383563  1
  F  F59  1  0.90046699  0.63547829  0.22383563  1
  F  F60  1  0.73501130  0.63547829  0.77616437  1
  F  F61  1  0.90046699  0.26498870  0.77616437  1
  F  F62  1  0.36452171  0.09953301  0.77616437  1
  F  F63  1  0.00000000  0.00000000  0.50000000  1
  F  F64  1  0.86043259  0.38089932  0.46657958  1
  F  F65  1  0.61910068  0.47953326  0.46657958  1
  F  F66  1  0.52046674  0.13956741  0.46657958  1
  F  F67  1  0.61910068  0.13956741  0.53342042  1
  F  F68  1  0.52046674  0.38089932  0.53342042  1
  F  F69  1  0.86043259  0.47953326  0.53342042  1
  F  F70  1  0.09109626  0.90890374  0.50000000  1
  F  F71  1  0.09109626  0.18219252  0.50000000  1
  F  F72  1  0.81780748  0.90890374  0.50000000  1
  Li  Li73  1  0.00073929  0.80984533  0.02668367  1
  Li  Li74  1  -0.80984533  -0.80910604  0.02668367  1
  Li  Li75  1  0.80910604  -0.00073929  0.02668367  1
  Li  Li76  1  -0.80984533  -0.00073929  -0.02668367  1
  Li  Li77  1  0.80910604  0.80984533  -0.02668367  1
  Li  Li78  1  0.00073929  -0.80910604  -0.02668367  1
  Li  Li79  1  0.58259380  0.41740620  0.00000000  1
  Li  Li80  1  0.58259380  0.16518760  -0.00000000  1
  Li  Li81  1  0.83481240  0.41740620  -0.00000000  1
  Li  Li82  1  0.33333333  0.66666667  0.50000000  1
  Li  Li83  1  0.74850929  0.79253803  0.43209022  1
  Li  Li84  1  0.20746197  0.95597126  0.43209022  1
  Li  Li85  1  0.04402874  0.25149071  0.43209022  1
  Li  Li86  1  0.20746197  0.25149071  0.56790978  1
  Li  Li87  1  0.04402874  0.79253803  0.56790978  1
  Li  Li88  1  0.74850929  0.95597126  0.56790978  1
  Li  Li89  1  0.81593992  0.17668797  0.21205359  1
  Li  Li90  1  0.82331203  0.63925195  0.21205359  1
  Li  Li91  1  0.36074805  0.18406008  0.21205359  1
  Li  Li92  1  0.82331203  0.18406008  0.78794641  1
  Li  Li93  1  0.36074805  0.17668797  0.78794641  1
  Li  Li94  1  0.81593992  0.63925195  0.78794641  1
  Li  Li95  1  0.12842511  0.27234792  0.85776648  1
  Li  Li96  1  0.72765208  0.85607720  0.85776648  1
  Li  Li97  1  0.14392280  0.87157489  0.85776648  1
  Li  Li98  1  0.72765208  0.87157489  0.14223352  1
  Li  Li99  1  0.14392280  0.27234792  0.14223352  1
  Li  Li100  1  0.12842511  0.85607720  0.14223352  1
  Li  Li101  1  0.07567354  0.89264143  0.72421642  1
  Li  Li102  1  0.10735857  0.18303211  0.72421642  1
  Li  Li103  1  0.81696789  0.92432646  0.72421642  1
  Li  Li104  1  0.10735857  0.92432646  0.27578358  1
  Li  Li105  1  0.81696789  0.89264143  0.27578358  1
  Li  Li106  1  0.07567354  0.18303211  0.27578358  1
  Li  Li107  1  0.43247345  0.56752655  0.50000000  1
  Li  Li108  1  0.43247345  0.86494690  0.50000000  1
  Li  Li109  1  0.13505310  0.56752655  0.50000000  1
  Li  Li110  1  0.40486474  0.27333721  0.91465689  1
  Li  Li111  1  0.72666279  0.13152753  0.91465689  1
  Li  Li112  1  0.86847247  0.59513526  0.91465689  1
  Li  Li113  1  0.72666279  0.59513526  0.08534311  1
  Li  Li114  1  0.86847247  0.27333721  0.08534311  1
  Li  Li115  1  0.40486474  0.13152753  0.08534311  1
  Li  Li116  1  0.74293110  0.35701885  0.28399147  1
  Li  Li117  1  0.64298115  0.38591225  0.28399147  1
  Li  Li118  1  0.61408775  0.25706890  0.28399147  1
  Li  Li119  1  0.64298115  0.25706890  0.71600853  1
  Li  Li120  1  0.61408775  0.35701885  0.71600853  1
  Li  Li121  1  0.74293110  0.38591225  0.71600853  1
  Li  Li122  1  0.23533296  0.76466704  0.50000000  1
  Li  Li123  1  0.23533296  0.47066591  0.50000000  1
  Li  Li124  1  0.52933409  0.76466704  0.50000000  1
  Li  Li125  1  0.92751665  0.01827534  0.68983500  1
  Li  Li126  1  0.98172466  0.90924131  0.68983500  1
  Li  Li127  1  0.09075869  0.07248335  0.68983500  1
  Li  Li128  1  0.98172466  0.07248335  0.31016500  1
  Li  Li129  1  0.09075869  0.01827534  0.31016500  1
  Li  Li130  1  0.92751665  0.90924131  0.31016500  1
  Li  Li131  1  0.66666667  0.33333333  0.00000000  1
  Li  Li132  1  0.00000000  0.00000000  0.22470873  1
  Li  Li133  1  0.00000000  0.00000000  0.77529127  1
  Li  Li134  1  0.90850394  0.20496417  0.52722479  1
  Li  Li135  1  0.79503583  0.70353977  0.52722479  1
  Li  Li136  1  0.29646023  0.09149606  0.52722479  1
  Li  Li137  1  0.79503583  0.09149606  0.47277521  1
  Li  Li138  1  0.29646023  0.20496417  0.47277521  1
  Li  Li139  1  0.90850394  0.70353977  0.47277521  1
  Li  Li140  1  0.00000000  0.00000000  0.00000000  1
  Li  Li141  1  0.66666667  0.33333333  0.18386389  1
  Li  Li142  1  0.66666667  0.33333333  0.81613611  1
  Li  Li143  1  0.16547249  0.83452751  0.00000000  1
  Li  Li144  1  0.16547249  0.33094498  -0.00000000  1
  Li  Li145  1  0.66905502  0.83452751  -0.00000000  1
