# generated using pymatgen
data_LiF
_symmetry_space_group_name_H-M   'P 1'
_cell_length_a   17.09098420
_cell_length_b   17.09098420
_cell_length_c   3.95977385
_cell_angle_alpha   90.00000000
_cell_angle_beta   90.00000000
_cell_angle_gamma   120.00000000
_symmetry_Int_Tables_number   1
_chemical_formula_structural   LiF
_chemical_formula_sum   'Li26 F26'
_cell_volume   1001.69420357
_cell_formula_units_Z   26
loop_
 _symmetry_equiv_pos_site_id
 _symmetry_equiv_pos_as_xyz
  1  'x, y, z'
loop_
 _atom_site_type_symbol
 _atom_site_label
 _atom_site_symmetry_multiplicity
 _atom_site_fract_x
 _atom_site_fract_y
 _atom_site_fract_z
 _atom_site_occupancy
  F  F0  1  0.97073906  0.78321186  0.29723437  1
  F  F1  1  0.21678814  0.18752720  0.29723437  1
  F  F2  1  0.81247280  0.02926094  0.29723437  1
  F  F3  1  0.21678814  0.02926094  0.70276563  1
  F  F4  1  0.81247280  0.78321186  0.70276563  1
  F  F5  1  0.97073906  0.18752720  0.70276563  1
  F  F6  1  0.20788617  0.51320685  0.18591217  1
  F  F7  1  0.48679315  0.69467932  0.18591217  1
  F  F8  1  0.30532068  0.79211383  0.18591217  1
  F  F9  1  0.48679315  0.79211383  0.81408783  1
  F  F10  1  0.30532068  0.51320685  0.81408783  1
  F  F11  1  0.20788617  0.69467932  0.81408783  1
  F  F12  1  0.88799168  0.54642823  0.99785469  1
  F  F13  1  0.45357177  0.34156345  0.99785469  1
  F  F14  1  0.65843655  0.11200832  0.99785469  1
  F  F15  1  0.45357177  0.11200832  0.00214531  1
  F  F16  1  0.65843655  0.54642823  0.00214531  1
  F  F17  1  0.88799168  0.34156345  0.00214531  1
  F  F18  1  0.30419069  0.20636726  0.27420456  1
  F  F19  1  0.79363274  0.09782343  0.27420456  1
  F  F20  1  0.90217657  0.69580931  0.27420456  1
  F  F21  1  0.79363274  0.69580931  0.72579544  1
  F  F22  1  0.90217657  0.20636726  0.72579544  1
  F  F23  1  0.30419069  0.09782343  0.72579544  1
  F  F24  1  0.66666667  0.33333333  0.50000000  1
  F  F25  1  0.00000000  0.00000000  0.00000000  1
  Li  Li26  1  0.66666667  0.33333333  0.00000000  1
  Li  Li27  1  0.39327892  0.48625572  0.62573101  1
  Li  Li28  1  -0.48625572  -0.09297680  0.62573101  1
  Li  Li29  1  0.09297680  -0.39327892  0.62573101  1
  Li  Li30  1  -0.48625572  -0.39327892  -0.62573101  1
  Li  Li31  1  0.09297680  0.48625572  -0.62573101  1
  Li  Li32  1  0.39327892  -0.09297680  -0.62573101  1
  Li  Li33  1  0.33333333  0.66666667  0.00000000  1
  Li  Li34  1  0.19315193  0.98008160  0.87084480  1
  Li  Li35  1  0.01991840  0.21307033  0.87084480  1
  Li  Li36  1  0.78692967  0.80684807  0.87084480  1
  Li  Li37  1  0.01991840  0.80684807  0.12915520  1
  Li  Li38  1  0.78692967  0.98008160  0.12915520  1
  Li  Li39  1  0.19315193  0.21307033  0.12915520  1
  Li  Li40  1  0.68868186  0.72203117  0.20222948  1
  Li  Li41  1  0.27796883  0.96665069  0.20222948  1
  Li  Li42  1  0.03334931  0.31131814  0.20222948  1
  Li  Li43  1  0.27796883  0.31131814  0.79777052  1
  Li  Li44  1  0.03334931  0.72203117  0.79777052  1
  Li  Li45  1  0.68868186  0.96665069  0.79777052  1
  Li  Li46  1  0.54138147  0.71650747  0.00611181  1
  Li  Li47  1  0.28349253  0.82487400  0.00611181  1
  Li  Li48  1  0.17512600  0.45861853  0.00611181  1
  Li  Li49  1  0.28349253  0.45861853  0.99388819  1
  Li  Li50  1  0.17512600  0.71650747  0.99388819  1
  Li  Li51  1  0.54138147  0.82487400  0.99388819  1
