# generated using pymatgen
data_Li4TeF2
_symmetry_space_group_name_H-M   'P 1'
_cell_length_a   13.29172246
_cell_length_b   13.29172246
_cell_length_c   13.29172246
_cell_angle_alpha   90.00000000
_cell_angle_beta   90.00000000
_cell_angle_gamma   90.00000000
_symmetry_Int_Tables_number   1
_chemical_formula_structural   Li4TeF2
_chemical_formula_sum   'Li96 Te24 F48'
_cell_volume   2348.24709011
_cell_formula_units_Z   24
loop_
 _symmetry_equiv_pos_site_id
 _symmetry_equiv_pos_as_xyz
  1  'x, y, z'
loop_
 _atom_site_type_symbol
 _atom_site_label
 _atom_site_symmetry_multiplicity
 _atom_site_fract_x
 _atom_site_fract_y
 _atom_site_fract_z
 _atom_site_occupancy
  F  F0  1  0.44148682  0.48877052  0.83591747  1
  F  F1  1  0.05851318  -0.48877052  1.33591747  1
  F  F2  1  -0.44148682  0.98877052  -0.33591747  1
  F  F3  1  0.94148682  0.01122948  -0.83591747  1
  F  F4  1  0.83591747  0.44148682  0.48877052  1
  F  F5  1  1.33591747  0.05851318  -0.48877052  1
  F  F6  1  -0.33591747  -0.44148682  0.98877052  1
  F  F7  1  -0.83591747  0.94148682  0.01122948  1
  F  F8  1  0.48877052  0.83591747  0.44148682  1
  F  F9  1  -0.48877052  1.33591747  0.05851318  1
  F  F10  1  0.98877052  -0.33591747  -0.44148682  1
  F  F11  1  0.01122948  -0.83591747  0.94148682  1
  F  F12  1  1.23877052  0.69148682  -0.58591747  1
  F  F13  1  0.26122948  0.30851318  -0.08591747  1
  F  F14  1  0.73877052  -0.19148682  1.58591747  1
  F  F15  1  -0.23877052  1.19148682  1.08591747  1
  F  F16  1  1.19148682  1.08591747  -0.23877052  1
  F  F17  1  -0.19148682  1.58591747  0.73877052  1
  F  F18  1  0.30851318  -0.08591747  0.26122948  1
  F  F19  1  0.69148682  -0.58591747  1.23877052  1
  F  F20  1  1.58591747  0.73877052  -0.19148682  1
  F  F21  1  1.08591747  -0.23877052  1.19148682  1
  F  F22  1  -0.58591747  1.23877052  0.69148682  1
  F  F23  1  -0.08591747  0.26122948  0.30851318  1
  F  F24  1  0.94148682  0.98877052  1.33591747  1
  F  F25  1  0.55851318  0.01122948  1.83591747  1
  F  F26  1  0.05851318  1.48877052  0.16408253  1
  F  F27  1  1.44148682  0.51122948  -0.33591747  1
  F  F28  1  1.33591747  0.94148682  0.98877052  1
  F  F29  1  1.83591747  0.55851318  0.01122948  1
  F  F30  1  0.16408253  0.05851318  1.48877052  1
  F  F31  1  -0.33591747  1.44148682  0.51122948  1
  F  F32  1  0.98877052  1.33591747  0.94148682  1
  F  F33  1  0.01122948  1.83591747  0.55851318  1
  F  F34  1  1.48877052  0.16408253  0.05851318  1
  F  F35  1  0.51122948  -0.33591747  1.44148682  1
  F  F36  1  1.73877052  1.19148682  -0.08591747  1
  F  F37  1  0.76122948  0.80851318  0.41408253  1
  F  F38  1  1.23877052  0.30851318  2.08591747  1
  F  F39  1  0.26122948  1.69148682  1.58591747  1
  F  F40  1  1.69148682  1.58591747  0.26122948  1
  F  F41  1  0.30851318  2.08591747  1.23877052  1
  F  F42  1  0.80851318  0.41408253  0.76122948  1
  F  F43  1  1.19148682  -0.08591747  1.73877052  1
  F  F44  1  2.08591747  1.23877052  0.30851318  1
  F  F45  1  1.58591747  0.26122948  1.69148682  1
  F  F46  1  -0.08591747  1.73877052  1.19148682  1
  F  F47  1  0.41408253  0.76122948  0.80851318  1
  Li  Li48  1  0.52269572  0.06190553  0.34154430  1
  Li  Li49  1  0.97730428  0.93809447  0.84154430  1
  Li  Li50  1  0.47730428  0.56190553  0.15845570  1
  Li  Li51  1  0.02269572  0.43809447  0.65845570  1
  Li  Li52  1  0.34154430  0.52269572  0.06190553  1
  Li  Li53  1  0.84154430  0.97730428  0.93809447  1
  Li  Li54  1  0.15845570  0.47730428  0.56190553  1
  Li  Li55  1  0.65845570  0.02269572  0.43809447  1
  Li  Li56  1  0.06190553  0.34154430  0.52269572  1
  Li  Li57  1  0.93809447  0.84154430  0.97730428  1
  Li  Li58  1  0.56190553  0.15845570  0.47730428  1
  Li  Li59  1  0.43809447  0.65845570  0.02269572  1
  Li  Li60  1  0.81190553  0.77269572  0.90845570  1
  Li  Li61  1  0.68809447  0.22730428  0.40845570  1
  Li  Li62  1  0.31190553  0.72730428  0.09154430  1
  Li  Li63  1  0.18809447  0.27269572  0.59154430  1
  Li  Li64  1  0.27269572  0.59154430  0.18809447  1
  Li  Li65  1  0.72730428  0.09154430  0.31190553  1
  Li  Li66  1  0.22730428  0.40845570  0.68809447  1
  Li  Li67  1  0.77269572  0.90845570  0.81190553  1
  Li  Li68  1  0.09154430  0.31190553  0.72730428  1
  Li  Li69  1  0.59154430  0.18809447  0.27269572  1
  Li  Li70  1  0.90845570  0.81190553  0.77269572  1
  Li  Li71  1  0.40845570  0.68809447  0.22730428  1
  Li  Li72  1  0.02269572  0.56190553  0.84154430  1
  Li  Li73  1  0.47730428  0.43809447  0.34154430  1
  Li  Li74  1  0.97730428  0.06190553  0.65845570  1
  Li  Li75  1  0.52269572  0.93809447  0.15845570  1
  Li  Li76  1  0.84154430  0.02269572  0.56190553  1
  Li  Li77  1  0.34154430  0.47730428  0.43809447  1
  Li  Li78  1  0.65845570  0.97730428  0.06190553  1
  Li  Li79  1  0.15845570  0.52269572  0.93809447  1
  Li  Li80  1  0.56190553  0.84154430  0.02269572  1
  Li  Li81  1  0.43809447  0.34154430  0.47730428  1
  Li  Li82  1  0.06190553  0.65845570  0.97730428  1
  Li  Li83  1  0.93809447  0.15845570  0.52269572  1
  Li  Li84  1  0.31190553  0.27269572  0.40845570  1
  Li  Li85  1  0.18809447  0.72730428  0.90845570  1
  Li  Li86  1  0.81190553  0.22730428  0.59154430  1
  Li  Li87  1  0.68809447  0.77269572  0.09154430  1
  Li  Li88  1  0.77269572  0.09154430  0.68809447  1
  Li  Li89  1  0.22730428  0.59154430  0.81190553  1
  Li  Li90  1  0.72730428  0.90845570  0.18809447  1
  Li  Li91  1  0.27269572  0.40845570  0.31190553  1
  Li  Li92  1  0.59154430  0.81190553  0.22730428  1
  Li  Li93  1  0.09154430  0.68809447  0.77269572  1
  Li  Li94  1  0.40845570  0.31190553  0.27269572  1
  Li  Li95  1  0.90845570  0.18809447  0.72730428  1
  Li  Li96  1  0.42313729  0.00000000  0.25000000  1
  Li  Li97  1  0.07686271  0.00000000  0.75000000  1
  Li  Li98  1  0.25000000  0.42313729  0.00000000  1
  Li  Li99  1  0.75000000  0.07686271  -0.00000000  1
  Li  Li100  1  0.00000000  0.25000000  0.42313729  1
  Li  Li101  1  0.00000000  0.75000000  0.07686271  1
  Li  Li102  1  0.75000000  0.67313729  0.00000000  1
  Li  Li103  1  0.75000000  0.32686271  0.50000000  1
  Li  Li104  1  0.17313729  0.50000000  0.25000000  1
  Li  Li105  1  0.82686271  0.00000000  0.25000000  1
  Li  Li106  1  0.00000000  0.25000000  0.82686271  1
  Li  Li107  1  0.50000000  0.25000000  0.17313729  1
  Li  Li108  1  0.92313729  0.50000000  0.75000000  1
  Li  Li109  1  0.57686271  0.50000000  0.25000000  1
  Li  Li110  1  0.75000000  0.92313729  0.50000000  1
  Li  Li111  1  0.25000000  0.57686271  0.50000000  1
  Li  Li112  1  0.50000000  0.75000000  0.92313729  1
  Li  Li113  1  0.50000000  0.25000000  0.57686271  1
  Li  Li114  1  0.25000000  0.17313729  0.50000000  1
  Li  Li115  1  0.25000000  0.82686271  0.00000000  1
  Li  Li116  1  0.67313729  0.00000000  0.75000000  1
  Li  Li117  1  0.32686271  0.50000000  0.75000000  1
  Li  Li118  1  0.50000000  0.75000000  0.32686271  1
  Li  Li119  1  0.00000000  0.75000000  0.67313729  1
  Li  Li120  1  0.12500000  0.21187523  0.46187523  1
  Li  Li121  1  0.37500000  0.78812477  0.96187523  1
  Li  Li122  1  0.87500000  0.71187523  0.03812477  1
  Li  Li123  1  0.62500000  0.28812477  0.53812477  1
  Li  Li124  1  0.46187523  0.12500000  0.21187523  1
  Li  Li125  1  0.96187523  0.37500000  0.78812477  1
  Li  Li126  1  0.03812477  0.87500000  0.71187523  1
  Li  Li127  1  0.53812477  0.62500000  0.28812477  1
  Li  Li128  1  0.21187523  0.46187523  0.12500000  1
  Li  Li129  1  0.78812477  0.96187523  0.37500000  1
  Li  Li130  1  0.71187523  0.03812477  0.87500000  1
  Li  Li131  1  0.28812477  0.53812477  0.62500000  1
  Li  Li132  1  0.62500000  0.71187523  0.96187523  1
  Li  Li133  1  0.87500000  0.28812477  0.46187523  1
  Li  Li134  1  0.37500000  0.21187523  0.53812477  1
  Li  Li135  1  0.12500000  0.78812477  0.03812477  1
  Li  Li136  1  0.96187523  0.62500000  0.71187523  1
  Li  Li137  1  0.46187523  0.87500000  0.28812477  1
  Li  Li138  1  0.53812477  0.37500000  0.21187523  1
  Li  Li139  1  0.03812477  0.12500000  0.78812477  1
  Li  Li140  1  0.71187523  0.96187523  0.62500000  1
  Li  Li141  1  0.28812477  0.46187523  0.87500000  1
  Li  Li142  1  0.21187523  0.53812477  0.37500000  1
  Li  Li143  1  0.78812477  0.03812477  0.12500000  1
  Te  Te144  1  0.12500000  0.00000000  0.25000000  1
  Te  Te145  1  0.37500000  0.00000000  0.75000000  1
  Te  Te146  1  0.25000000  0.12500000  0.00000000  1
  Te  Te147  1  0.75000000  0.37500000  0.00000000  1
  Te  Te148  1  0.00000000  0.25000000  0.12500000  1
  Te  Te149  1  0.00000000  0.75000000  0.37500000  1
  Te  Te150  1  0.62500000  0.50000000  0.75000000  1
  Te  Te151  1  0.87500000  0.50000000  0.25000000  1
  Te  Te152  1  0.75000000  0.62500000  0.50000000  1
  Te  Te153  1  0.25000000  0.87500000  0.50000000  1
  Te  Te154  1  0.50000000  0.75000000  0.62500000  1
  Te  Te155  1  0.50000000  0.25000000  0.87500000  1
  Te  Te156  1  0.62500000  -0.00000000  0.25000000  1
  Te  Te157  1  0.87500000  0.00000000  0.75000000  1
  Te  Te158  1  0.25000000  0.62500000  -0.00000000  1
  Te  Te159  1  0.75000000  0.87500000  0.00000000  1
  Te  Te160  1  0.00000000  0.25000000  0.62500000  1
  Te  Te161  1  0.00000000  0.75000000  0.87500000  1
  Te  Te162  1  0.12500000  0.50000000  0.75000000  1
  Te  Te163  1  0.37500000  0.50000000  0.25000000  1
  Te  Te164  1  0.75000000  0.12500000  0.50000000  1
  Te  Te165  1  0.25000000  0.37500000  0.50000000  1
  Te  Te166  1  0.50000000  0.75000000  0.12500000  1
  Te  Te167  1  0.50000000  0.25000000  0.37500000  1
