# generated using pymatgen
data_LiYAs2P
_symmetry_space_group_name_H-M   'P 1'
_cell_length_a   5.31662061
_cell_length_b   5.37126037
_cell_length_c   6.95653349
_cell_angle_alpha   93.78413851
_cell_angle_beta   98.43363278
_cell_angle_gamma   105.43189263
_symmetry_Int_Tables_number   1
_chemical_formula_structural   LiYAs2P
_chemical_formula_sum   'Li2 Y2 As4 P2'
_cell_volume   188.27204113
_cell_formula_units_Z   2
loop_
 _symmetry_equiv_pos_site_id
 _symmetry_equiv_pos_as_xyz
  1  'x, y, z'
loop_
 _atom_site_type_symbol
 _atom_site_label
 _atom_site_symmetry_multiplicity
 _atom_site_fract_x
 _atom_site_fract_y
 _atom_site_fract_z
 _atom_site_occupancy
  Y  Y0  1  0.00000000  0.00000000  0.00000000  1
  Y  Y1  1  0.33300000  0.66700000  0.25000000  1
  P  P2  1  0.66700000  0.33300000  0.50000000  1
  P  P3  1  0.00000000  0.00000000  0.75000000  1
  As  As4  1  0.21644474  0.12869113  0.73510883  1
  As  As5  1  0.83396988  0.19081501  0.13990018  1
  As  As6  1  0.94045677  0.36454057  0.28316328  1
  As  As7  1  0.56320429  0.98034312  0.19162187  1
  Li  Li8  1  0.50002819  0.16578536  0.19856006  1
  Li  Li9  1  0.20940477  0.73970091  0.13707661  1
