# generated using pymatgen
data_LiF
_symmetry_space_group_name_H-M   'P 1'
_cell_length_a   10.34871370
_cell_length_b   7.18186017
_cell_length_c   8.09046804
_cell_angle_alpha   90.00000000
_cell_angle_beta   90.00000000
_cell_angle_gamma   90.00000000
_symmetry_Int_Tables_number   1
_chemical_formula_structural   LiF
_chemical_formula_sum   'Li18 F18'
_cell_volume   601.30797503
_cell_formula_units_Z   18
loop_
 _symmetry_equiv_pos_site_id
 _symmetry_equiv_pos_as_xyz
  1  'x, y, z'
loop_
 _atom_site_type_symbol
 _atom_site_label
 _atom_site_symmetry_multiplicity
 _atom_site_fract_x
 _atom_site_fract_y
 _atom_site_fract_z
 _atom_site_occupancy
  F  F0  1  0.00000000  0.50000000  0.56355383  1
  F  F1  1  0.50000000  0.00000000  0.93644617  1
  F  F2  1  0.00000000  0.50000000  0.43644617  1
  F  F3  1  0.50000000  0.00000000  0.06355383  1
  F  F4  1  0.57098438  0.05352357  0.11964083  1
  F  F5  1  -0.57098438  -0.05352357  0.11964083  1
  F  F6  1  -0.07098438  0.55352357  0.38035917  1
  F  F7  1  1.07098438  0.44647643  0.38035917  1
  F  F8  1  -0.57098438  -0.05352357  -0.11964083  1
  F  F9  1  0.57098438  0.05352357  -0.11964083  1
  F  F10  1  1.07098438  0.44647643  0.61964083  1
  F  F11  1  -0.07098438  0.55352357  0.61964083  1
  F  F12  1  0.00000000  0.00000000  0.50000000  1
  F  F13  1  0.50000000  0.50000000  0.00000000  1
  F  F14  1  0.11883893  0.46340751  -0.00000000  1
  F  F15  1  0.88116107  0.53659249  0.00000000  1
  F  F16  1  0.38116107  0.96340751  0.50000000  1
  F  F17  1  0.61883893  0.03659249  0.50000000  1
  Li  Li18  1  0.35715915  0.70335752  -0.00000000  1
  Li  Li19  1  0.64284085  0.29664248  -0.00000000  1
  Li  Li20  1  0.14284085  0.20335752  0.50000000  1
  Li  Li21  1  0.85715915  0.79664248  0.50000000  1
  Li  Li22  1  0.00000000  0.00000000  0.00000000  1
  Li  Li23  1  0.50000000  0.50000000  0.50000000  1
  Li  Li24  1  0.77808494  0.61729499  0.00000000  1
  Li  Li25  1  0.22191506  0.38270501  0.00000000  1
  Li  Li26  1  0.72191506  0.11729499  0.50000000  1
  Li  Li27  1  0.27808494  0.88270501  0.50000000  1
  Li  Li28  1  0.70068018  0.96277565  0.37085033  1
  Li  Li29  1  0.29931982  0.03722435  0.37085033  1
  Li  Li30  1  0.79931982  0.46277565  0.12914967  1
  Li  Li31  1  0.20068018  0.53722435  0.12914967  1
  Li  Li32  1  0.29931982  0.03722435  0.62914967  1
  Li  Li33  1  0.70068018  0.96277565  0.62914967  1
  Li  Li34  1  0.20068018  0.53722435  0.87085033  1
  Li  Li35  1  0.79931982  0.46277565  0.87085033  1
