# generated using pymatgen
data_LiCu3P2
_symmetry_space_group_name_H-M   'P 1'
_cell_length_a   4.07584517
_cell_length_b   4.26256492
_cell_length_c   6.56111646
_cell_angle_alpha   96.23167107
_cell_angle_beta   103.01939766
_cell_angle_gamma   114.16464203
_symmetry_Int_Tables_number   1
_chemical_formula_structural   LiCu3P2
_chemical_formula_sum   'Li1 Cu3 P2'
_cell_volume   98.70954127
_cell_formula_units_Z   1
loop_
 _symmetry_equiv_pos_site_id
 _symmetry_equiv_pos_as_xyz
  1  'x, y, z'
loop_
 _atom_site_type_symbol
 _atom_site_label
 _atom_site_symmetry_multiplicity
 _atom_site_fract_x
 _atom_site_fract_y
 _atom_site_fract_z
 _atom_site_occupancy
  P  P0  1  0.00000000  0.00000000  0.00000000  1
  P  P1  1  0.50000000  0.50000000  0.50000000  1
  Li  Li2  1  0.25000000  0.25000000  0.25000000  1
  Cu  Cu3  1  0.75000000  0.25000000  0.00000000  1
  Cu  Cu4  1  0.25000000  0.75000000  0.50000000  1
  Cu  Cu5  1  0.33473247  0.28469682  0.22309835  1
