# generated using pymatgen
data_LiF
_symmetry_space_group_name_H-M   'P 1'
_cell_length_a   11.36433666
_cell_length_b   11.36433666
_cell_length_c   8.25519618
_cell_angle_alpha   90.00000000
_cell_angle_beta   90.00000000
_cell_angle_gamma   90.00000000
_symmetry_Int_Tables_number   1
_chemical_formula_structural   LiF
_chemical_formula_sum   'Li30 F30'
_cell_volume   1066.14329530
_cell_formula_units_Z   30
loop_
 _symmetry_equiv_pos_site_id
 _symmetry_equiv_pos_as_xyz
  1  'x, y, z'
loop_
 _atom_site_type_symbol
 _atom_site_label
 _atom_site_symmetry_multiplicity
 _atom_site_fract_x
 _atom_site_fract_y
 _atom_site_fract_z
 _atom_site_occupancy
  F  F0  1  0.90594866  0.50000000  -0.00000000  1
  F  F1  1  0.09405134  0.50000000  0.00000000  1
  F  F2  1  0.50000000  0.90594866  -0.00000000  1
  F  F3  1  0.50000000  0.09405134  0.00000000  1
  F  F4  1  0.83542204  0.32263851  0.50000000  1
  F  F5  1  0.16457796  0.67736149  0.50000000  1
  F  F6  1  0.67736149  0.83542204  0.50000000  1
  F  F7  1  0.32263851  0.16457796  0.50000000  1
  F  F8  1  0.16457796  0.32263851  0.50000000  1
  F  F9  1  0.83542204  0.67736149  0.50000000  1
  F  F10  1  0.32263851  0.83542204  0.50000000  1
  F  F11  1  0.67736149  0.16457796  0.50000000  1
  F  F12  1  0.80343556  0.28090238  0.39917704  1
  F  F13  1  -0.80343556  -0.28090238  0.39917704  1
  F  F14  1  -0.28090238  0.80343556  0.39917704  1
  F  F15  1  0.28090238  -0.80343556  0.39917704  1
  F  F16  1  -0.80343556  0.28090238  -0.39917704  1
  F  F17  1  0.80343556  -0.28090238  -0.39917704  1
  F  F18  1  0.28090238  0.80343556  -0.39917704  1
  F  F19  1  -0.28090238  -0.80343556  -0.39917704  1
  F  F20  1  -0.80343556  -0.28090238  -0.39917704  1
  F  F21  1  0.80343556  0.28090238  -0.39917704  1
  F  F22  1  0.28090238  -0.80343556  -0.39917704  1
  F  F23  1  -0.28090238  0.80343556  -0.39917704  1
  F  F24  1  0.80343556  -0.28090238  0.39917704  1
  F  F25  1  -0.80343556  0.28090238  0.39917704  1
  F  F26  1  -0.28090238  -0.80343556  0.39917704  1
  F  F27  1  0.28090238  0.80343556  0.39917704  1
  F  F28  1  0.00000000  0.50000000  0.00000000  1
  F  F29  1  0.50000000  0.00000000  0.00000000  1
  Li  Li30  1  0.00000000  0.00000000  0.50000000  1
  Li  Li31  1  0.59258946  0.75167140  0.50000000  1
  Li  Li32  1  0.40741054  0.24832860  0.50000000  1
  Li  Li33  1  0.24832860  0.59258946  0.50000000  1
  Li  Li34  1  0.75167140  0.40741054  0.50000000  1
  Li  Li35  1  0.40741054  0.75167140  0.50000000  1
  Li  Li36  1  0.59258946  0.24832860  0.50000000  1
  Li  Li37  1  0.75167140  0.59258946  0.50000000  1
  Li  Li38  1  0.24832860  0.40741054  0.50000000  1
  Li  Li39  1  0.88001195  0.39998407  -0.00000000  1
  Li  Li40  1  0.11998805  0.60001593  0.00000000  1
  Li  Li41  1  0.60001593  0.88001195  0.00000000  1
  Li  Li42  1  0.39998407  0.11998805  -0.00000000  1
  Li  Li43  1  0.11998805  0.39998407  -0.00000000  1
  Li  Li44  1  0.88001195  0.60001593  -0.00000000  1
  Li  Li45  1  0.39998407  0.88001195  -0.00000000  1
  Li  Li46  1  0.60001593  0.11998805  0.00000000  1
  Li  Li47  1  0.39472547  0.39472547  0.68839858  1
  Li  Li48  1  0.60527453  0.60527453  0.68839858  1
  Li  Li49  1  0.60527453  0.39472547  0.68839858  1
  Li  Li50  1  0.39472547  0.60527453  0.68839858  1
  Li  Li51  1  0.60527453  0.39472547  0.31160142  1
  Li  Li52  1  0.39472547  0.60527453  0.31160142  1
  Li  Li53  1  0.39472547  0.39472547  0.31160142  1
  Li  Li54  1  0.60527453  0.60527453  0.31160142  1
  Li  Li55  1  0.65051509  0.00000000  -0.00000000  1
  Li  Li56  1  0.34948491  -0.00000000  0.00000000  1
  Li  Li57  1  0.00000000  0.65051509  0.00000000  1
  Li  Li58  1  0.00000000  0.34948491  0.00000000  1
  Li  Li59  1  0.00000000  0.00000000  0.00000000  1
