# generated using pymatgen
data_Li2Y2As3P2Se
_symmetry_space_group_name_H-M   'P 1'
_cell_length_a   4.66261533
_cell_length_b   4.83493670
_cell_length_c   6.71984341
_cell_angle_alpha   95.08880795
_cell_angle_beta   100.00795806
_cell_angle_gamma   108.75476339
_symmetry_Int_Tables_number   1
_chemical_formula_structural   Li2Y2As3P2Se
_chemical_formula_sum   'Li2 Y2 As3 P2 Se1'
_cell_volume   139.55408741
_cell_formula_units_Z   1
loop_
 _symmetry_equiv_pos_site_id
 _symmetry_equiv_pos_as_xyz
  1  'x, y, z'
loop_
 _atom_site_type_symbol
 _atom_site_label
 _atom_site_symmetry_multiplicity
 _atom_site_fract_x
 _atom_site_fract_y
 _atom_site_fract_z
 _atom_site_occupancy
  Se  Se0  1  0.12500000  0.00000000  0.25000000  1
  P  P1  1  0.00000000  0.00000000  0.00000000  1
  P  P2  1  0.37500000  0.00000000  0.25000000  1
  As  As3  1  0.25000000  0.25000000  0.25000000  1
  As  As4  1  0.00000000  0.25000000  0.12500000  1
  As  As5  1  0.23763243  0.58202883  0.49562284  1
  Li  Li6  1  0.85880261  0.59190403  0.05087480  1
  Li  Li7  1  0.37991831  0.98722681  0.93967372  1
  Y  Y8  1  0.11019744  0.86129686  0.04166220  1
  Y  Y9  1  0.87614062  0.73913496  0.46056401  1
