# generated using pymatgen
data_LiF
_symmetry_space_group_name_H-M   'P 1'
_cell_length_a   13.09114995
_cell_length_b   13.09114995
_cell_length_c   18.12069811
_cell_angle_alpha   90.00000000
_cell_angle_beta   90.00000000
_cell_angle_gamma   120.00000000
_symmetry_Int_Tables_number   1
_chemical_formula_structural   LiF
_chemical_formula_sum   'Li108 F108'
_cell_volume   2689.43561268
_cell_formula_units_Z   108
loop_
 _symmetry_equiv_pos_site_id
 _symmetry_equiv_pos_as_xyz
  1  'x, y, z'
loop_
 _atom_site_type_symbol
 _atom_site_label
 _atom_site_symmetry_multiplicity
 _atom_site_fract_x
 _atom_site_fract_y
 _atom_site_fract_z
 _atom_site_occupancy
  F  F0  1  0.63227006  0.72825227  0.57949259  1
  F  F1  1  0.27174773  0.90401779  0.57949259  1
  F  F2  1  0.09598221  0.36772994  0.57949259  1
  F  F3  1  0.72825227  0.63227006  0.92050741  1
  F  F4  1  0.90401779  0.27174773  0.92050741  1
  F  F5  1  0.36772994  0.09598221  0.92050741  1
  F  F6  1  0.36772994  0.27174773  0.42050741  1
  F  F7  1  0.72825227  0.09598221  0.42050741  1
  F  F8  1  0.90401779  0.63227006  0.42050741  1
  F  F9  1  0.27174773  0.36772994  0.07949259  1
  F  F10  1  0.09598221  0.72825227  0.07949259  1
  F  F11  1  0.63227006  0.90401779  0.07949259  1
  F  F12  1  0.29893672  0.06158561  0.91282593  1
  F  F13  1  0.93841439  0.23735112  0.91282593  1
  F  F14  1  0.76264888  0.70106328  0.91282593  1
  F  F15  1  0.39491894  0.96560339  0.25384074  1
  F  F16  1  0.57068445  0.60508106  0.25384074  1
  F  F17  1  0.03439661  0.42931555  0.25384074  1
  F  F18  1  0.03439661  0.60508106  0.75384074  1
  F  F19  1  0.39491894  0.42931555  0.75384074  1
  F  F20  1  0.57068445  0.96560339  0.75384074  1
  F  F21  1  0.93841439  0.70106328  0.41282593  1
  F  F22  1  0.76264888  0.06158561  0.41282593  1
  F  F23  1  0.29893672  0.23735112  0.41282593  1
  F  F24  1  0.96560339  0.39491894  0.24615926  1
  F  F25  1  0.60508106  0.57068445  0.24615926  1
  F  F26  1  0.42931555  0.03439661  0.24615926  1
  F  F27  1  0.06158561  0.29893672  0.58717407  1
  F  F28  1  0.23735112  0.93841439  0.58717407  1
  F  F29  1  0.70106328  0.76264888  0.58717407  1
  F  F30  1  0.70106328  0.93841439  0.08717407  1
  F  F31  1  0.06158561  0.76264888  0.08717407  1
  F  F32  1  0.23735112  0.29893672  0.08717407  1
  F  F33  1  0.60508106  0.03439661  0.74615926  1
  F  F34  1  0.42931555  0.39491894  0.74615926  1
  F  F35  1  0.96560339  0.57068445  0.74615926  1
  F  F36  1  0.57034406  0.06066113  0.26996823  1
  F  F37  1  0.93933887  0.50968294  0.26996823  1
  F  F38  1  0.49031706  0.42965594  0.26996823  1
  F  F39  1  0.06066113  0.57034406  0.23003177  1
  F  F40  1  0.50968294  0.93933887  0.23003177  1
  F  F41  1  0.42965594  0.49031706  0.23003177  1
  F  F42  1  0.42965594  0.93933887  0.73003177  1
  F  F43  1  0.06066113  0.49031706  0.73003177  1
  F  F44  1  0.50968294  0.57034406  0.73003177  1
  F  F45  1  0.93933887  0.42965594  0.76996823  1
  F  F46  1  0.49031706  0.06066113  0.76996823  1
  F  F47  1  0.57034406  0.50968294  0.76996823  1
  F  F48  1  0.23701073  0.39399446  0.60330157  1
  F  F49  1  0.60600554  0.84301627  0.60330157  1
  F  F50  1  0.15698373  0.76298927  0.60330157  1
  F  F51  1  0.72732779  0.90367740  0.56336510  1
  F  F52  1  0.17634961  0.27267221  0.56336510  1
  F  F53  1  0.09632260  0.82365039  0.56336510  1
  F  F54  1  0.09632260  0.27267221  0.06336510  1
  F  F55  1  0.72732779  0.82365039  0.06336510  1
  F  F56  1  0.17634961  0.90367740  0.06336510  1
  F  F57  1  0.60600554  0.76298927  0.10330157  1
  F  F58  1  0.15698373  0.39399446  0.10330157  1
  F  F59  1  0.23701073  0.84301627  0.10330157  1
  F  F60  1  0.90367740  0.72732779  0.93663490  1
  F  F61  1  0.27267221  0.17634961  0.93663490  1
  F  F62  1  0.82365039  0.09632260  0.93663490  1
  F  F63  1  0.39399446  0.23701073  0.89669843  1
  F  F64  1  0.84301627  0.60600554  0.89669843  1
  F  F65  1  0.76298927  0.15698373  0.89669843  1
  F  F66  1  0.76298927  0.60600554  0.39669843  1
  F  F67  1  0.39399446  0.15698373  0.39669843  1
  F  F68  1  0.84301627  0.23701073  0.39669843  1
  F  F69  1  0.27267221  0.09632260  0.43663490  1
  F  F70  1  0.82365039  0.72732779  0.43663490  1
  F  F71  1  0.90367740  0.17634961  0.43663490  1
  F  F72  1  0.00000000  0.00000000  0.57098852  1
  F  F73  1  0.00000000  0.00000000  0.92901148  1
  F  F74  1  0.00000000  0.00000000  0.42901148  1
  F  F75  1  0.00000000  0.00000000  0.07098852  1
  F  F76  1  0.66666667  0.33333333  0.90432185  1
  F  F77  1  0.66666667  0.33333333  0.26234481  1
  F  F78  1  0.66666667  0.33333333  0.76234481  1
  F  F79  1  0.66666667  0.33333333  0.40432185  1
  F  F80  1  0.33333333  0.66666667  0.23765519  1
  F  F81  1  0.33333333  0.66666667  0.59567815  1
  F  F82  1  0.33333333  0.66666667  0.09567815  1
  F  F83  1  0.33333333  0.66666667  0.73765519  1
  F  F84  1  0.16373095  0.00000000  0.25000000  1
  F  F85  1  0.00000000  0.16373095  0.25000000  1
  F  F86  1  0.83626905  0.83626905  0.25000000  1
  F  F87  1  0.83626905  0.00000000  0.75000000  1
  F  F88  1  0.00000000  0.83626905  0.75000000  1
  F  F89  1  0.16373095  0.16373095  0.75000000  1
  F  F90  1  0.83039762  0.33333333  0.58333333  1
  F  F91  1  0.66666667  0.49706428  0.58333333  1
  F  F92  1  0.50293572  0.16960238  0.58333333  1
  F  F93  1  0.50293572  0.33333333  0.08333333  1
  F  F94  1  0.66666667  0.16960238  0.08333333  1
  F  F95  1  0.83039762  0.49706428  0.08333333  1
  F  F96  1  0.49706428  0.66666667  0.91666667  1
  F  F97  1  0.33333333  0.83039762  0.91666667  1
  F  F98  1  0.16960238  0.50293572  0.91666667  1
  F  F99  1  0.16960238  0.66666667  0.41666667  1
  F  F100  1  0.33333333  0.50293572  0.41666667  1
  F  F101  1  0.49706428  0.83039762  0.41666667  1
  F  F102  1  0.00000000  0.00000000  0.00000000  1
  F  F103  1  0.00000000  0.00000000  0.50000000  1
  F  F104  1  0.66666667  0.33333333  0.33333333  1
  F  F105  1  0.66666667  0.33333333  0.83333333  1
  F  F106  1  0.33333333  0.66666667  0.66666667  1
  F  F107  1  0.33333333  0.66666667  0.16666667  1
  Li  Li108  1  0.50321977  0.76105888  0.65331418  1
  Li  Li109  1  -0.76105888  -0.25783911  0.65331418  1
  Li  Li110  1  0.25783911  -0.50321977  0.65331418  1
  Li  Li111  1  0.76105888  0.50321977  -0.15331418  1
  Li  Li112  1  -0.25783911  -0.76105888  -0.15331418  1
  Li  Li113  1  -0.50321977  0.25783911  -0.15331418  1
  Li  Li114  1  -0.50321977  -0.76105888  -0.65331418  1
  Li  Li115  1  0.76105888  0.25783911  -0.65331418  1
  Li  Li116  1  -0.25783911  0.50321977  -0.65331418  1
  Li  Li117  1  -0.76105888  -0.50321977  1.15331418  1
  Li  Li118  1  0.25783911  0.76105888  1.15331418  1
  Li  Li119  1  0.50321977  -0.25783911  1.15331418  1
  Li  Li120  1  1.16988643  1.09439221  0.98664751  1
  Li  Li121  1  -0.09439221  0.07549422  0.98664751  1
  Li  Li122  1  0.92450578  -0.16988643  0.98664751  1
  Li  Li123  1  1.42772555  0.83655310  0.18001915  1
  Li  Li124  1  0.40882755  -0.42772555  0.18001915  1
  Li  Li125  1  0.16344690  0.59117245  0.18001915  1
  Li  Li126  1  0.16344690  -0.42772555  -0.31998085  1
  Li  Li127  1  1.42772555  0.59117245  -0.31998085  1
  Li  Li128  1  0.40882755  0.83655310  -0.31998085  1
  Li  Li129  1  -0.09439221  -0.16988643  1.48664751  1
  Li  Li130  1  0.92450578  1.09439221  1.48664751  1
  Li  Li131  1  1.16988643  0.07549422  1.48664751  1
  Li  Li132  1  0.83655310  1.42772555  1.31998085  1
  Li  Li133  1  -0.42772555  0.40882755  1.31998085  1
  Li  Li134  1  0.59117245  0.16344690  1.31998085  1
  Li  Li135  1  1.09439221  1.16988643  0.51335249  1
  Li  Li136  1  0.07549422  -0.09439221  0.51335249  1
  Li  Li137  1  -0.16988643  0.92450578  0.51335249  1
  Li  Li138  1  -0.16988643  -0.09439221  0.01335249  1
  Li  Li139  1  1.09439221  0.92450578  0.01335249  1
  Li  Li140  1  0.07549422  1.16988643  0.01335249  1
  Li  Li141  1  -0.42772555  0.16344690  1.81998085  1
  Li  Li142  1  0.59117245  1.42772555  1.81998085  1
  Li  Li143  1  0.83655310  0.40882755  1.81998085  1
  Li  Li144  1  0.50000000  -0.00000000  -0.00000000  1
  Li  Li145  1  0.00000000  0.50000000  0.00000000  1
  Li  Li146  1  0.50000000  0.50000000  -0.00000000  1
  Li  Li147  1  0.00000000  0.50000000  0.50000000  1
  Li  Li148  1  0.50000000  -0.00000000  0.50000000  1
  Li  Li149  1  0.50000000  0.50000000  0.50000000  1
  Li  Li150  1  0.16666667  0.33333333  0.33333333  1
  Li  Li151  1  0.66666667  0.83333333  0.33333333  1
  Li  Li152  1  0.16666667  0.83333333  0.33333333  1
  Li  Li153  1  0.66666667  0.83333333  0.83333333  1
  Li  Li154  1  0.16666667  0.33333333  0.83333333  1
  Li  Li155  1  0.16666667  0.83333333  0.83333333  1
  Li  Li156  1  0.83333333  0.66666667  0.66666667  1
  Li  Li157  1  0.33333333  0.16666667  0.66666667  1
  Li  Li158  1  0.83333333  0.16666667  0.66666667  1
  Li  Li159  1  0.33333333  0.16666667  0.16666667  1
  Li  Li160  1  0.83333333  0.66666667  0.16666667  1
  Li  Li161  1  0.83333333  0.16666667  0.16666667  1
  Li  Li162  1  0.99207485  0.68621035  0.02083809  1
  Li  Li163  1  0.31378965  0.30586450  0.02083809  1
  Li  Li164  1  0.69413550  0.00792515  0.02083809  1
  Li  Li165  1  0.68621035  0.99207485  0.47916191  1
  Li  Li166  1  0.30586450  0.31378965  0.47916191  1
  Li  Li167  1  0.00792515  0.69413550  0.47916191  1
  Li  Li168  1  0.00792515  0.31378965  0.97916191  1
  Li  Li169  1  0.68621035  0.69413550  0.97916191  1
  Li  Li170  1  0.30586450  0.99207485  0.97916191  1
  Li  Li171  1  0.31378965  0.00792515  0.52083809  1
  Li  Li172  1  0.69413550  0.68621035  0.52083809  1
  Li  Li173  1  0.99207485  0.30586450  0.52083809  1
  Li  Li174  1  0.65874151  0.01954368  0.35417142  1
  Li  Li175  1  0.98045632  0.63919783  0.35417142  1
  Li  Li176  1  0.36080217  0.34125849  0.35417142  1
  Li  Li177  1  0.35287701  0.32540818  0.81249524  1
  Li  Li178  1  0.97253117  0.64712299  0.81249524  1
  Li  Li179  1  0.67459182  0.02746883  0.81249524  1
  Li  Li180  1  0.67459182  0.64712299  0.31249524  1
  Li  Li181  1  0.35287701  0.02746883  0.31249524  1
  Li  Li182  1  0.97253117  0.32540818  0.31249524  1
  Li  Li183  1  0.98045632  0.34125849  0.85417142  1
  Li  Li184  1  0.36080217  0.01954368  0.85417142  1
  Li  Li185  1  0.65874151  0.63919783  0.85417142  1
  Li  Li186  1  0.32540818  0.35287701  0.68750476  1
  Li  Li187  1  0.64712299  0.97253117  0.68750476  1
  Li  Li188  1  0.02746883  0.67459182  0.68750476  1
  Li  Li189  1  0.01954368  0.65874151  0.14582858  1
  Li  Li190  1  0.63919783  0.98045632  0.14582858  1
  Li  Li191  1  0.34125849  0.36080217  0.14582858  1
  Li  Li192  1  0.34125849  0.98045632  0.64582858  1
  Li  Li193  1  0.01954368  0.36080217  0.64582858  1
  Li  Li194  1  0.63919783  0.65874151  0.64582858  1
  Li  Li195  1  0.64712299  0.67459182  0.18750476  1
  Li  Li196  1  0.02746883  0.35287701  0.18750476  1
  Li  Li197  1  0.32540818  0.97253117  0.18750476  1
  Li  Li198  1  0.93521190  0.00000000  0.25000000  1
  Li  Li199  1  0.00000000  0.93521190  0.25000000  1
  Li  Li200  1  0.06478810  0.06478810  0.25000000  1
  Li  Li201  1  0.06478810  0.00000000  0.75000000  1
  Li  Li202  1  0.00000000  0.06478810  0.75000000  1
  Li  Li203  1  0.93521190  0.93521190  0.75000000  1
  Li  Li204  1  0.60187856  0.33333333  0.58333333  1
  Li  Li205  1  0.66666667  0.26854523  0.58333333  1
  Li  Li206  1  0.73145477  0.39812144  0.58333333  1
  Li  Li207  1  0.73145477  0.33333333  0.08333333  1
  Li  Li208  1  0.66666667  0.39812144  0.08333333  1
  Li  Li209  1  0.60187856  0.26854523  0.08333333  1
  Li  Li210  1  0.26854523  0.66666667  0.91666667  1
  Li  Li211  1  0.33333333  0.60187856  0.91666667  1
  Li  Li212  1  0.39812144  0.73145477  0.91666667  1
  Li  Li213  1  0.39812144  0.66666667  0.41666667  1
  Li  Li214  1  0.33333333  0.73145477  0.41666667  1
  Li  Li215  1  0.26854523  0.60187856  0.41666667  1
