# generated using pymatgen
data_LiYMoAs2P
_symmetry_space_group_name_H-M   'P 1'
_cell_length_a   5.03827030
_cell_length_b   5.22705600
_cell_length_c   6.94315233
_cell_angle_alpha   94.24013895
_cell_angle_beta   99.45502062
_cell_angle_gamma   107.29765231
_symmetry_Int_Tables_number   1
_chemical_formula_structural   LiYMoAs2P
_chemical_formula_sum   'Li2 Y2 Mo2 As4 P2'
_cell_volume   170.73898911
_cell_formula_units_Z   2
loop_
 _symmetry_equiv_pos_site_id
 _symmetry_equiv_pos_as_xyz
  1  'x, y, z'
loop_
 _atom_site_type_symbol
 _atom_site_label
 _atom_site_symmetry_multiplicity
 _atom_site_fract_x
 _atom_site_fract_y
 _atom_site_fract_z
 _atom_site_occupancy
  P  P0  1  0.00000000  0.00000000  0.00000000  1
  P  P1  1  0.50000000  0.50000000  0.50000000  1
  Mo  Mo2  1  0.50000000  0.50000000  0.00000000  1
  Mo  Mo3  1  0.50000000  0.00000000  0.50000000  1
  As  As4  1  0.00000000  0.50000000  0.50000000  1
  As  As5  1  0.19020326  0.14133157  0.30124851  1
  As  As6  1  0.27518379  0.24141452  0.45530209  1
  As  As7  1  0.21683762  0.17643952  0.97812671  1
  Li  Li8  1  0.66133196  0.38774540  0.08025155  1
  Li  Li9  1  0.50419430  0.55194225  0.06283106  1
  Y  Y10  1  0.42615259  0.01760266  0.58994158  1
  Y  Y11  1  0.67508543  0.21131870  0.48915638  1
