# generated using pymatgen
data_LiF
_symmetry_space_group_name_H-M   'P 1'
_cell_length_a   6.15302562
_cell_length_b   8.92901869
_cell_length_c   8.96176293
_cell_angle_alpha   90.00000000
_cell_angle_beta   90.00000000
_cell_angle_gamma   90.00000000
_symmetry_Int_Tables_number   1
_chemical_formula_structural   LiF
_chemical_formula_sum   'Li24 F24'
_cell_volume   492.36356341
_cell_formula_units_Z   24
loop_
 _symmetry_equiv_pos_site_id
 _symmetry_equiv_pos_as_xyz
  1  'x, y, z'
loop_
 _atom_site_type_symbol
 _atom_site_label
 _atom_site_symmetry_multiplicity
 _atom_site_fract_x
 _atom_site_fract_y
 _atom_site_fract_z
 _atom_site_occupancy
  F  F0  1  0.51040065  0.57506614  0.10041089  1
  F  F1  1  0.48959935  0.42493386  0.10041089  1
  F  F2  1  0.98959935  0.07506614  0.39958911  1
  F  F3  1  0.01040065  0.92493386  0.39958911  1
  F  F4  1  0.48959935  0.42493386  0.89958911  1
  F  F5  1  0.51040065  0.57506614  0.89958911  1
  F  F6  1  0.01040065  0.92493386  0.60041089  1
  F  F7  1  0.98959935  0.07506614  0.60041089  1
  F  F8  1  0.05206015  0.28357609  0.25184047  1
  F  F9  1  0.94793985  0.71642391  0.25184047  1
  F  F10  1  0.44793985  0.78357609  0.24815953  1
  F  F11  1  0.55206015  0.21642391  0.24815953  1
  F  F12  1  0.94793985  0.71642391  0.74815953  1
  F  F13  1  0.05206015  0.28357609  0.74815953  1
  F  F14  1  0.55206015  0.21642391  0.75184047  1
  F  F15  1  0.44793985  0.78357609  0.75184047  1
  F  F16  1  0.08064366  0.72000393  0.37599927  1
  F  F17  1  0.91935634  0.27999607  0.37599927  1
  F  F18  1  0.41935634  0.22000393  0.12400073  1
  F  F19  1  0.58064366  0.77999607  0.12400073  1
  F  F20  1  0.91935634  0.27999607  0.62400073  1
  F  F21  1  0.08064366  0.72000393  0.62400073  1
  F  F22  1  0.58064366  0.77999607  0.87599927  1
  F  F23  1  0.41935634  0.22000393  0.87599927  1
  Li  Li24  1  0.58666897  0.27761124  0.00000000  1
  Li  Li25  1  0.41333103  0.72238876  0.00000000  1
  Li  Li26  1  0.91333103  0.77761124  0.50000000  1
  Li  Li27  1  0.08666897  0.22238876  0.50000000  1
  Li  Li28  1  0.00000000  0.50000000  0.00000000  1
  Li  Li29  1  0.50000000  0.00000000  0.50000000  1
  Li  Li30  1  0.96796727  0.58600294  0.33083781  1
  Li  Li31  1  -0.96796727  -0.58600294  0.33083781  1
  Li  Li32  1  -0.46796727  1.08600294  0.16916219  1
  Li  Li33  1  1.46796727  -0.08600294  0.16916219  1
  Li  Li34  1  -0.96796727  -0.58600294  -0.33083781  1
  Li  Li35  1  0.96796727  0.58600294  -0.33083781  1
  Li  Li36  1  1.46796727  -0.08600294  0.83083781  1
  Li  Li37  1  -0.46796727  1.08600294  0.83083781  1
  Li  Li38  1  0.00000000  0.50000000  0.50000000  1
  Li  Li39  1  0.50000000  0.00000000  0.00000000  1
  Li  Li40  1  0.20873045  0.90811076  -0.00000000  1
  Li  Li41  1  0.79126955  0.09188924  -0.00000000  1
  Li  Li42  1  0.29126955  0.40811076  0.50000000  1
  Li  Li43  1  0.70873045  0.59188924  0.50000000  1
  Li  Li44  1  0.79217545  0.37169505  -0.00000000  1
  Li  Li45  1  0.20782455  0.62830495  0.00000000  1
  Li  Li46  1  0.70782455  0.87169505  0.50000000  1
  Li  Li47  1  0.29217545  0.12830495  0.50000000  1
