# generated using pymatgen
data_LiF
_symmetry_space_group_name_H-M   'P 1'
_cell_length_a   9.55817294
_cell_length_b   8.14349857
_cell_length_c   10.04766999
_cell_angle_alpha   90.00000000
_cell_angle_beta   90.00000000
_cell_angle_gamma   90.00000000
_symmetry_Int_Tables_number   1
_chemical_formula_structural   LiF
_chemical_formula_sum   'Li24 F24'
_cell_volume   782.08016383
_cell_formula_units_Z   24
loop_
 _symmetry_equiv_pos_site_id
 _symmetry_equiv_pos_as_xyz
  1  'x, y, z'
loop_
 _atom_site_type_symbol
 _atom_site_label
 _atom_site_symmetry_multiplicity
 _atom_site_fract_x
 _atom_site_fract_y
 _atom_site_fract_z
 _atom_site_occupancy
  F  F0  1  0.92811351  0.35878679  0.60690505  1
  F  F1  1  0.57188649  0.64121321  0.10690505  1
  F  F2  1  0.07188649  0.85878679  0.39309495  1
  F  F3  1  0.42811351  0.14121321  0.89309495  1
  F  F4  1  0.07188649  0.64121321  0.39309495  1
  F  F5  1  0.42811351  0.35878679  0.89309495  1
  F  F6  1  0.92811351  0.14121321  0.60690505  1
  F  F7  1  0.57188649  0.85878679  0.10690505  1
  F  F8  1  0.90414946  0.19882293  0.70711673  1
  F  F9  1  0.59585054  0.80117707  0.20711673  1
  F  F10  1  0.09585054  0.69882293  0.29288327  1
  F  F11  1  0.40414946  0.30117707  0.79288327  1
  F  F12  1  0.09585054  0.80117707  0.29288327  1
  F  F13  1  0.40414946  0.19882293  0.79288327  1
  F  F14  1  0.90414946  0.30117707  0.70711673  1
  F  F15  1  0.59585054  0.69882293  0.20711673  1
  F  F16  1  0.52773185  0.84628445  0.57176003  1
  F  F17  1  0.97226815  0.15371555  0.07176003  1
  F  F18  1  0.47226815  0.34628445  0.42823997  1
  F  F19  1  0.02773185  0.65371555  0.92823997  1
  F  F20  1  0.47226815  0.15371555  0.42823997  1
  F  F21  1  0.02773185  0.84628445  0.92823997  1
  F  F22  1  0.52773185  0.65371555  0.57176003  1
  F  F23  1  0.97226815  0.34628445  0.07176003  1
  Li  Li24  1  0.29397617  0.25000000  0.89431704  1
  Li  Li25  1  0.20602383  0.75000000  0.39431704  1
  Li  Li26  1  0.70602383  0.75000000  0.10568296  1
  Li  Li27  1  0.79397617  0.25000000  0.60568296  1
  Li  Li28  1  0.99420686  0.03728615  0.08351781  1
  Li  Li29  1  -0.49420686  -0.03728615  0.58351781  1
  Li  Li30  1  -0.99420686  0.53728615  -0.08351781  1
  Li  Li31  1  1.49420686  0.46271385  0.41648219  1
  Li  Li32  1  -0.99420686  -0.03728615  -0.08351781  1
  Li  Li33  1  1.49420686  0.03728615  0.41648219  1
  Li  Li34  1  0.99420686  0.46271385  0.08351781  1
  Li  Li35  1  -0.49420686  0.53728615  0.58351781  1
  Li  Li36  1  0.90261433  0.25000000  0.41861991  1
  Li  Li37  1  0.59738567  0.75000000  0.91861991  1
  Li  Li38  1  0.09738567  0.75000000  0.58138009  1
  Li  Li39  1  0.40261433  0.25000000  0.08138009  1
  Li  Li40  1  0.61226625  0.25000000  0.69278894  1
  Li  Li41  1  0.88773375  0.75000000  0.19278894  1
  Li  Li42  1  0.38773375  0.75000000  0.30721106  1
  Li  Li43  1  0.11226625  0.25000000  0.80721106  1
  Li  Li44  1  0.23911222  0.25000000  0.45067630  1
  Li  Li45  1  0.26088778  0.75000000  0.95067630  1
  Li  Li46  1  0.76088778  0.75000000  0.54932370  1
  Li  Li47  1  0.73911222  0.25000000  0.04932370  1
