# generated using pymatgen
data_LiCaF3
_symmetry_space_group_name_H-M   'P 1'
_cell_length_a   21.70170752
_cell_length_b   21.70170752
_cell_length_c   4.82433683
_cell_angle_alpha   90.00000000
_cell_angle_beta   90.00000000
_cell_angle_gamma   120.00000000
_symmetry_Int_Tables_number   1
_chemical_formula_structural   LiCaF3
_chemical_formula_sum   'Li18 Ca18 F54'
_cell_volume   1967.68722707
_cell_formula_units_Z   18
loop_
 _symmetry_equiv_pos_site_id
 _symmetry_equiv_pos_as_xyz
  1  'x, y, z'
loop_
 _atom_site_type_symbol
 _atom_site_label
 _atom_site_symmetry_multiplicity
 _atom_site_fract_x
 _atom_site_fract_y
 _atom_site_fract_z
 _atom_site_occupancy
  Ca  Ca0  1  0.62386628  -0.00000000  0.25000000  1
  Ca  Ca1  1  0.00000000  0.62386628  0.25000000  1
  Ca  Ca2  1  0.37613372  0.37613372  0.25000000  1
  Ca  Ca3  1  0.37613372  0.00000000  0.75000000  1
  Ca  Ca4  1  0.00000000  0.37613372  0.75000000  1
  Ca  Ca5  1  0.62386628  0.62386628  0.75000000  1
  Ca  Ca6  1  0.29053295  0.33333333  0.58333333  1
  Ca  Ca7  1  0.66666667  0.95719962  0.58333333  1
  Ca  Ca8  1  0.04280038  0.70946705  0.58333333  1
  Ca  Ca9  1  0.04280038  0.33333333  0.08333333  1
  Ca  Ca10  1  0.66666667  0.70946705  0.08333333  1
  Ca  Ca11  1  0.29053295  0.95719962  0.08333333  1
  Ca  Ca12  1  0.95719962  0.66666667  0.91666667  1
  Ca  Ca13  1  0.33333333  0.29053295  0.91666667  1
  Ca  Ca14  1  0.70946705  0.04280038  0.91666667  1
  Ca  Ca15  1  0.70946705  0.66666667  0.41666667  1
  Ca  Ca16  1  0.33333333  0.04280038  0.41666667  1
  Ca  Ca17  1  0.95719962  0.29053295  0.41666667  1
  F  F18  1  0.16479068  0.19769546  0.49308300  1
  F  F19  1  -0.19769546  -0.03290477  0.49308300  1
  F  F20  1  0.03290477  -0.16479068  0.49308300  1
  F  F21  1  0.19769546  0.16479068  0.00691700  1
  F  F22  1  -0.03290477  -0.19769546  0.00691700  1
  F  F23  1  -0.16479068  0.03290477  0.00691700  1
  F  F24  1  -0.16479068  -0.19769546  -0.49308300  1
  F  F25  1  0.19769546  0.03290477  -0.49308300  1
  F  F26  1  -0.03290477  0.16479068  -0.49308300  1
  F  F27  1  -0.19769546  -0.16479068  0.99308300  1
  F  F28  1  0.03290477  0.19769546  0.99308300  1
  F  F29  1  0.16479068  -0.03290477  0.99308300  1
  F  F30  1  0.83145735  0.53102879  0.82641633  1
  F  F31  1  0.46897121  0.30042856  0.82641633  1
  F  F32  1  0.69957144  0.16854265  0.82641633  1
  F  F33  1  0.86436213  0.49812402  0.34025033  1
  F  F34  1  0.63376189  0.13563787  0.34025033  1
  F  F35  1  0.50187598  0.36623811  0.34025033  1
  F  F36  1  0.50187598  0.13563787  -0.15974967  1
  F  F37  1  0.86436213  0.36623811  -0.15974967  1
  F  F38  1  0.63376189  0.49812402  -0.15974967  1
  F  F39  1  0.46897121  0.16854265  1.32641633  1
  F  F40  1  0.69957144  0.53102879  1.32641633  1
  F  F41  1  0.83145735  0.30042856  1.32641633  1
  F  F42  1  0.49812402  0.86436213  1.15974967  1
  F  F43  1  0.13563787  0.63376189  1.15974967  1
  F  F44  1  0.36623811  0.50187598  1.15974967  1
  F  F45  1  0.53102879  0.83145735  0.67358367  1
  F  F46  1  0.30042856  0.46897121  0.67358367  1
  F  F47  1  0.16854265  0.69957144  0.67358367  1
  F  F48  1  0.16854265  0.46897121  0.17358367  1
  F  F49  1  0.53102879  0.69957144  0.17358367  1
  F  F50  1  0.30042856  0.83145735  0.17358367  1
  F  F51  1  0.13563787  0.50187598  1.65974967  1
  F  F52  1  0.36623811  0.86436213  1.65974967  1
  F  F53  1  0.49812402  0.63376189  1.65974967  1
  F  F54  1  0.00000000  0.00000000  0.25000000  1
  F  F55  1  0.00000000  0.00000000  0.75000000  1
  F  F56  1  0.66666667  0.33333333  0.58333333  1
  F  F57  1  0.66666667  0.33333333  0.08333333  1
  F  F58  1  0.33333333  0.66666667  0.91666667  1
  F  F59  1  0.33333333  0.66666667  0.41666667  1
  F  F60  1  0.00000000  0.00000000  0.12312910  1
  F  F61  1  0.00000000  0.00000000  0.37687090  1
  F  F62  1  0.00000000  0.00000000  0.87687090  1
  F  F63  1  0.00000000  0.00000000  0.62312910  1
  F  F64  1  0.66666667  0.33333333  0.45646244  1
  F  F65  1  0.66666667  0.33333333  0.71020423  1
  F  F66  1  0.66666667  0.33333333  0.21020423  1
  F  F67  1  0.66666667  0.33333333  0.95646244  1
  F  F68  1  0.33333333  0.66666667  0.78979577  1
  F  F69  1  0.33333333  0.66666667  0.04353756  1
  F  F70  1  0.33333333  0.66666667  0.54353756  1
  F  F71  1  0.33333333  0.66666667  0.28979577  1
  Li  Li72  1  0.36694598  0.00000000  0.25000000  1
  Li  Li73  1  0.00000000  0.36694598  0.25000000  1
  Li  Li74  1  0.63305402  0.63305402  0.25000000  1
  Li  Li75  1  0.63305402  0.00000000  0.75000000  1
  Li  Li76  1  0.00000000  0.63305402  0.75000000  1
  Li  Li77  1  0.36694598  0.36694598  0.75000000  1
  Li  Li78  1  0.03361265  0.33333333  0.58333333  1
  Li  Li79  1  0.66666667  0.70027931  0.58333333  1
  Li  Li80  1  0.29972069  0.96638735  0.58333333  1
  Li  Li81  1  0.29972069  0.33333333  0.08333333  1
  Li  Li82  1  0.66666667  0.96638735  0.08333333  1
  Li  Li83  1  0.03361265  0.70027931  0.08333333  1
  Li  Li84  1  0.70027931  0.66666667  0.91666667  1
  Li  Li85  1  0.33333333  0.03361265  0.91666667  1
  Li  Li86  1  0.96638735  0.29972069  0.91666667  1
  Li  Li87  1  0.96638735  0.66666667  0.41666667  1
  Li  Li88  1  0.33333333  0.29972069  0.41666667  1
  Li  Li89  1  0.70027931  0.03361265  0.41666667  1
