# generated using pymatgen
data_LiF
_symmetry_space_group_name_H-M   'P 1'
_cell_length_a   9.05435537
_cell_length_b   8.92155188
_cell_length_c   7.17849223
_cell_angle_alpha   90.00000000
_cell_angle_beta   90.00000000
_cell_angle_gamma   90.00000000
_symmetry_Int_Tables_number   1
_chemical_formula_structural   LiF
_chemical_formula_sum   'Li24 F24'
_cell_volume   579.87071454
_cell_formula_units_Z   24
loop_
 _symmetry_equiv_pos_site_id
 _symmetry_equiv_pos_as_xyz
  1  'x, y, z'
loop_
 _atom_site_type_symbol
 _atom_site_label
 _atom_site_symmetry_multiplicity
 _atom_site_fract_x
 _atom_site_fract_y
 _atom_site_fract_z
 _atom_site_occupancy
  F  F0  1  0.17564513  0.35697773  0.30636265  1
  F  F1  1  0.82435487  0.64302227  0.30636265  1
  F  F2  1  0.32435487  0.85697773  0.19363735  1
  F  F3  1  0.67564513  0.14302227  0.19363735  1
  F  F4  1  0.82435487  0.64302227  0.69363735  1
  F  F5  1  0.17564513  0.35697773  0.69363735  1
  F  F6  1  0.67564513  0.14302227  0.80636265  1
  F  F7  1  0.32435487  0.85697773  0.80636265  1
  F  F8  1  0.40253913  0.95779861  0.80084823  1
  F  F9  1  0.59746087  0.04220139  0.80084823  1
  F  F10  1  0.09746087  0.45779861  0.69915177  1
  F  F11  1  0.90253913  0.54220139  0.69915177  1
  F  F12  1  0.59746087  0.04220139  0.19915177  1
  F  F13  1  0.40253913  0.95779861  0.19915177  1
  F  F14  1  0.90253913  0.54220139  0.30084823  1
  F  F15  1  0.09746087  0.45779861  0.30084823  1
  F  F16  1  0.00000000  0.50000000  0.68713050  1
  F  F17  1  0.50000000  0.00000000  0.81286950  1
  F  F18  1  0.00000000  0.50000000  0.31286950  1
  F  F19  1  0.50000000  0.00000000  0.18713050  1
  F  F20  1  0.86855747  0.71493922  -0.00000000  1
  F  F21  1  0.13144253  0.28506078  0.00000000  1
  F  F22  1  0.63144253  0.21493922  0.50000000  1
  F  F23  1  0.36855747  0.78506078  0.50000000  1
  Li  Li24  1  0.00000000  0.50000000  0.87242326  1
  Li  Li25  1  0.50000000  0.00000000  0.62757674  1
  Li  Li26  1  0.00000000  0.50000000  0.12757674  1
  Li  Li27  1  0.50000000  0.00000000  0.37242326  1
  Li  Li28  1  0.00000000  0.00000000  0.11413946  1
  Li  Li29  1  0.50000000  0.50000000  0.38586054  1
  Li  Li30  1  0.00000000  0.00000000  0.88586054  1
  Li  Li31  1  0.50000000  0.50000000  0.61413946  1
  Li  Li32  1  0.00000000  0.00000000  0.50000000  1
  Li  Li33  1  0.50000000  0.50000000  0.00000000  1
  Li  Li34  1  0.52348192  0.70190578  0.00000000  1
  Li  Li35  1  0.47651808  0.29809422  0.00000000  1
  Li  Li36  1  0.97651808  0.20190578  0.50000000  1
  Li  Li37  1  0.02348192  0.79809422  0.50000000  1
  Li  Li38  1  0.52984353  0.81596128  0.88249942  1
  Li  Li39  1  -0.52984353  -0.81596128  0.88249942  1
  Li  Li40  1  -0.02984353  1.31596128  -0.38249942  1
  Li  Li41  1  1.02984353  -0.31596128  -0.38249942  1
  Li  Li42  1  -0.52984353  -0.81596128  -0.88249942  1
  Li  Li43  1  0.52984353  0.81596128  -0.88249942  1
  Li  Li44  1  1.02984353  -0.31596128  1.38249942  1
  Li  Li45  1  -0.02984353  1.31596128  1.38249942  1
  Li  Li46  1  0.00000000  0.50000000  0.50000000  1
  Li  Li47  1  0.50000000  0.00000000  0.00000000  1
