# generated using pymatgen
data_LiF
_symmetry_space_group_name_H-M   'P 1'
_cell_length_a   7.76122333
_cell_length_b   8.47645297
_cell_length_c   6.50943830
_cell_angle_alpha   90.00000000
_cell_angle_beta   90.00000000
_cell_angle_gamma   90.00000000
_symmetry_Int_Tables_number   1
_chemical_formula_structural   LiF
_chemical_formula_sum   'Li20 F20'
_cell_volume   428.24061295
_cell_formula_units_Z   20
loop_
 _symmetry_equiv_pos_site_id
 _symmetry_equiv_pos_as_xyz
  1  'x, y, z'
loop_
 _atom_site_type_symbol
 _atom_site_label
 _atom_site_symmetry_multiplicity
 _atom_site_fract_x
 _atom_site_fract_y
 _atom_site_fract_z
 _atom_site_occupancy
  F  F0  1  0.71088351  0.25000000  0.43080671  1
  F  F1  1  0.78911649  0.75000000  0.93080671  1
  F  F2  1  0.28911649  0.75000000  0.56919329  1
  F  F3  1  0.21088351  0.25000000  0.06919329  1
  F  F4  1  0.11933729  0.19710056  0.05735672  1
  F  F5  1  0.38066271  0.80289944  0.55735672  1
  F  F6  1  0.88066271  0.69710056  0.94264328  1
  F  F7  1  0.61933729  0.30289944  0.44264328  1
  F  F8  1  0.88066271  0.80289944  0.94264328  1
  F  F9  1  0.61933729  0.19710056  0.44264328  1
  F  F10  1  0.11933729  0.30289944  0.05735672  1
  F  F11  1  0.38066271  0.69710056  0.55735672  1
  F  F12  1  0.72133174  0.63412861  0.19740226  1
  F  F13  1  0.77866826  0.36587139  0.69740226  1
  F  F14  1  0.27866826  0.13412861  0.80259774  1
  F  F15  1  0.22133174  0.86587139  0.30259774  1
  F  F16  1  0.27866826  0.36587139  0.80259774  1
  F  F17  1  0.22133174  0.63412861  0.30259774  1
  F  F18  1  0.72133174  0.86587139  0.19740226  1
  F  F19  1  0.77866826  0.13412861  0.69740226  1
  Li  Li20  1  0.91274883  0.96296573  0.49706369  1
  Li  Li21  1  -0.41274883  -0.96296573  0.99706369  1
  Li  Li22  1  -0.91274883  1.46296573  -0.49706369  1
  Li  Li23  1  1.41274883  -0.46296573  0.00293631  1
  Li  Li24  1  -0.91274883  -0.96296573  -0.49706369  1
  Li  Li25  1  1.41274883  0.96296573  0.00293631  1
  Li  Li26  1  0.91274883  -0.46296573  0.49706369  1
  Li  Li27  1  -0.41274883  1.46296573  0.99706369  1
  Li  Li28  1  0.00000000  0.00000000  0.00000000  1
  Li  Li29  1  0.50000000  0.00000000  0.50000000  1
  Li  Li30  1  0.00000000  0.50000000  0.00000000  1
  Li  Li31  1  0.50000000  0.50000000  0.50000000  1
  Li  Li32  1  0.83857009  0.25000000  0.06391757  1
  Li  Li33  1  0.66142991  0.75000000  0.56391757  1
  Li  Li34  1  0.16142991  0.75000000  0.93608243  1
  Li  Li35  1  0.33857009  0.25000000  0.43608243  1
  Li  Li36  1  0.54952474  0.25000000  0.70485034  1
  Li  Li37  1  0.95047526  0.75000000  0.20485034  1
  Li  Li38  1  0.45047526  0.75000000  0.29514966  1
  Li  Li39  1  0.04952474  0.25000000  0.79514966  1
