# generated using pymatgen
data_Li2Y2As2P3Se
_symmetry_space_group_name_H-M   'P 1'
_cell_length_a   5.32833731
_cell_length_b   5.33659158
_cell_length_c   7.01812979
_cell_angle_alpha   93.91035246
_cell_angle_beta   97.22615690
_cell_angle_gamma   103.68361874
_symmetry_Int_Tables_number   1
_chemical_formula_structural   Li2Y2As2P3Se
_chemical_formula_sum   'Li2 Y2 As2 P3 Se1'
_cell_volume   191.36161014
_cell_formula_units_Z   1
loop_
 _symmetry_equiv_pos_site_id
 _symmetry_equiv_pos_as_xyz
  1  'x, y, z'
loop_
 _atom_site_type_symbol
 _atom_site_label
 _atom_site_symmetry_multiplicity
 _atom_site_fract_x
 _atom_site_fract_y
 _atom_site_fract_z
 _atom_site_occupancy
  Se  Se0  1  0.12500000  0.00000000  0.25000000  1
  Y  Y1  1  0.00000000  0.00000000  0.00000000  1
  Y  Y2  1  0.37500000  0.00000000  0.25000000  1
  P  P3  1  0.25000000  0.25000000  0.25000000  1
  P  P4  1  0.00000000  0.25000000  0.12500000  1
  P  P5  1  0.34159036  0.20091414  0.58582733  1
  As  As6  1  0.35745001  0.81832685  0.87734124  1
  As  As7  1  0.49182452  0.64167881  0.46991052  1
  Li  Li8  1  0.65305924  0.91821745  0.51483880  1
  Li  Li9  1  0.12335078  0.48872658  0.99207127  1
