# generated using pymatgen
data_LiF
_symmetry_space_group_name_H-M   'P 1'
_cell_length_a   9.77240642
_cell_length_b   9.77240642
_cell_length_c   10.72304505
_cell_angle_alpha   90.00000000
_cell_angle_beta   90.00000000
_cell_angle_gamma   120.00000000
_symmetry_Int_Tables_number   1
_chemical_formula_structural   LiF
_chemical_formula_sum   'Li44 F44'
_cell_volume   886.85333355
_cell_formula_units_Z   44
loop_
 _symmetry_equiv_pos_site_id
 _symmetry_equiv_pos_as_xyz
  1  'x, y, z'
loop_
 _atom_site_type_symbol
 _atom_site_label
 _atom_site_symmetry_multiplicity
 _atom_site_fract_x
 _atom_site_fract_y
 _atom_site_fract_z
 _atom_site_occupancy
  F  F0  1  0.66666667  0.33333333  0.25000000  1
  F  F1  1  0.33333333  0.66666667  0.75000000  1
  F  F2  1  0.33333333  0.66666667  0.25000000  1
  F  F3  1  0.66666667  0.33333333  0.75000000  1
  F  F4  1  0.54630756  0.63953153  0.80144194  1
  F  F5  1  0.36046847  0.90677603  0.80144194  1
  F  F6  1  0.09322397  0.45369244  0.80144194  1
  F  F7  1  0.45369244  0.36046847  0.30144194  1
  F  F8  1  0.63953153  0.09322397  0.30144194  1
  F  F9  1  0.90677603  0.54630756  0.30144194  1
  F  F10  1  0.45369244  0.36046847  0.19855806  1
  F  F11  1  0.63953153  0.09322397  0.19855806  1
  F  F12  1  0.90677603  0.54630756  0.19855806  1
  F  F13  1  0.54630756  0.63953153  0.69855806  1
  F  F14  1  0.36046847  0.90677603  0.69855806  1
  F  F15  1  0.09322397  0.45369244  0.69855806  1
  F  F16  1  0.77144779  0.56148138  0.90611706  1
  F  F17  1  0.43851862  0.20996641  0.90611706  1
  F  F18  1  0.79003359  0.22855221  0.90611706  1
  F  F19  1  0.22855221  0.43851862  0.40611706  1
  F  F20  1  0.56148138  0.79003359  0.40611706  1
  F  F21  1  0.20996641  0.77144779  0.40611706  1
  F  F22  1  0.22855221  0.43851862  0.09388294  1
  F  F23  1  0.56148138  0.79003359  0.09388294  1
  F  F24  1  0.20996641  0.77144779  0.09388294  1
  F  F25  1  0.77144779  0.56148138  0.59388294  1
  F  F26  1  0.43851862  0.20996641  0.59388294  1
  F  F27  1  0.79003359  0.22855221  0.59388294  1
  F  F28  1  0.51333174  0.37556411  0.64033039  1
  F  F29  1  0.62443589  0.13776763  0.64033039  1
  F  F30  1  0.86223237  0.48666826  0.64033039  1
  F  F31  1  0.48666826  0.62443589  0.14033039  1
  F  F32  1  0.37556411  0.86223237  0.14033039  1
  F  F33  1  0.13776763  0.51333174  0.14033039  1
  F  F34  1  0.48666826  0.62443589  0.35966961  1
  F  F35  1  0.37556411  0.86223237  0.35966961  1
  F  F36  1  0.13776763  0.51333174  0.35966961  1
  F  F37  1  0.51333174  0.37556411  0.85966961  1
  F  F38  1  0.62443589  0.13776763  0.85966961  1
  F  F39  1  0.86223237  0.48666826  0.85966961  1
  F  F40  1  0.33333333  0.66666667  0.98324409  1
  F  F41  1  0.66666667  0.33333333  0.48324409  1
  F  F42  1  0.66666667  0.33333333  0.01675591  1
  F  F43  1  0.33333333  0.66666667  0.51675591  1
  Li  Li44  1  0.71216261  0.98378836  0.49758989  1
  Li  Li45  1  -0.98378836  -0.27162575  0.49758989  1
  Li  Li46  1  0.27162575  -0.71216261  0.49758989  1
  Li  Li47  1  -0.71216261  -0.98378836  0.99758989  1
  Li  Li48  1  0.98378836  0.27162575  0.99758989  1
  Li  Li49  1  -0.27162575  0.71216261  0.99758989  1
  Li  Li50  1  -0.71216261  -0.98378836  -0.49758989  1
  Li  Li51  1  0.98378836  0.27162575  -0.49758989  1
  Li  Li52  1  -0.27162575  0.71216261  -0.49758989  1
  Li  Li53  1  0.71216261  0.98378836  0.00241011  1
  Li  Li54  1  -0.98378836  -0.27162575  0.00241011  1
  Li  Li55  1  0.27162575  -0.71216261  0.00241011  1
  Li  Li56  1  0.88062558  0.41549845  0.25000000  1
  Li  Li57  1  0.58450155  0.46512713  0.25000000  1
  Li  Li58  1  0.53487287  0.11937442  0.25000000  1
  Li  Li59  1  0.11937442  0.58450155  0.75000000  1
  Li  Li60  1  0.41549845  0.53487287  0.75000000  1
  Li  Li61  1  0.46512713  0.88062558  0.75000000  1
  Li  Li62  1  0.50000000  0.00000000  0.00000000  1
  Li  Li63  1  0.00000000  0.50000000  0.00000000  1
  Li  Li64  1  0.50000000  0.50000000  0.00000000  1
  Li  Li65  1  0.50000000  0.00000000  0.50000000  1
  Li  Li66  1  0.00000000  0.50000000  0.50000000  1
  Li  Li67  1  0.50000000  0.50000000  0.50000000  1
  Li  Li68  1  0.61363494  0.23797959  0.41395621  1
  Li  Li69  1  0.76202041  0.37565535  0.41395621  1
  Li  Li70  1  0.62434465  0.38636506  0.41395621  1
  Li  Li71  1  0.38636506  0.76202041  0.91395621  1
  Li  Li72  1  0.23797959  0.62434465  0.91395621  1
  Li  Li73  1  0.37565535  0.61363494  0.91395621  1
  Li  Li74  1  0.38636506  0.76202041  0.58604379  1
  Li  Li75  1  0.23797959  0.62434465  0.58604379  1
  Li  Li76  1  0.37565535  0.61363494  0.58604379  1
  Li  Li77  1  0.61363494  0.23797959  0.08604379  1
  Li  Li78  1  0.76202041  0.37565535  0.08604379  1
  Li  Li79  1  0.62434465  0.38636506  0.08604379  1
  Li  Li80  1  0.00000000  0.00000000  0.25000000  1
  Li  Li81  1  0.00000000  0.00000000  0.75000000  1
  Li  Li82  1  0.78239155  0.49640021  0.25000000  1
  Li  Li83  1  0.50359979  0.28599133  0.25000000  1
  Li  Li84  1  0.71400867  0.21760845  0.25000000  1
  Li  Li85  1  0.21760845  0.50359979  0.75000000  1
  Li  Li86  1  0.49640021  0.71400867  0.75000000  1
  Li  Li87  1  0.28599133  0.78239155  0.75000000  1
