# generated using pymatgen
data_LiF
_symmetry_space_group_name_H-M   'P 1'
_cell_length_a   9.73499327
_cell_length_b   3.89555932
_cell_length_c   9.64183710
_cell_angle_alpha   90.00000000
_cell_angle_beta   90.00000000
_cell_angle_gamma   90.00000000
_symmetry_Int_Tables_number   1
_chemical_formula_structural   LiF
_chemical_formula_sum   'Li24 F24'
_cell_volume   365.64973840
_cell_formula_units_Z   24
loop_
 _symmetry_equiv_pos_site_id
 _symmetry_equiv_pos_as_xyz
  1  'x, y, z'
loop_
 _atom_site_type_symbol
 _atom_site_label
 _atom_site_symmetry_multiplicity
 _atom_site_fract_x
 _atom_site_fract_y
 _atom_site_fract_z
 _atom_site_occupancy
  F  F0  1  0.69588170  0.44353559  0.99090975  1
  F  F1  1  -0.19588170  -0.44353559  1.49090975  1
  F  F2  1  -0.69588170  0.94353559  -0.99090975  1
  F  F3  1  1.19588170  0.05646441  -0.49090975  1
  F  F4  1  -0.69588170  -0.44353559  -0.99090975  1
  F  F5  1  1.19588170  0.44353559  -0.49090975  1
  F  F6  1  0.69588170  0.05646441  0.99090975  1
  F  F7  1  -0.19588170  0.94353559  1.49090975  1
  F  F8  1  0.74287574  0.25000000  0.71654740  1
  F  F9  1  0.75712426  0.75000000  0.21654740  1
  F  F10  1  0.25712426  0.75000000  0.28345260  1
  F  F11  1  0.24287574  0.25000000  0.78345260  1
  F  F12  1  0.91956257  0.25000000  0.54119734  1
  F  F13  1  0.58043743  0.75000000  0.04119734  1
  F  F14  1  0.08043743  0.75000000  0.45880266  1
  F  F15  1  0.41956257  0.25000000  0.95880266  1
  F  F16  1  0.50402884  0.88853424  0.62364625  1
  F  F17  1  0.99597116  0.11146576  0.12364625  1
  F  F18  1  0.49597116  0.38853424  0.37635375  1
  F  F19  1  0.00402884  0.61146576  0.87635375  1
  F  F20  1  0.49597116  0.11146576  0.37635375  1
  F  F21  1  0.00402884  0.88853424  0.87635375  1
  F  F22  1  0.50402884  0.61146576  0.62364625  1
  F  F23  1  0.99597116  0.38853424  0.12364625  1
  Li  Li24  1  0.00000000  0.00000000  0.50000000  1
  Li  Li25  1  0.50000000  0.00000000  0.00000000  1
  Li  Li26  1  0.00000000  0.50000000  0.50000000  1
  Li  Li27  1  0.50000000  0.50000000  0.00000000  1
  Li  Li28  1  0.42481457  0.25000000  0.16413895  1
  Li  Li29  1  0.07518543  0.75000000  0.66413895  1
  Li  Li30  1  0.57518543  0.75000000  0.83586105  1
  Li  Li31  1  0.92481457  0.25000000  0.33586105  1
  Li  Li32  1  0.32656203  0.25000000  0.85903578  1
  Li  Li33  1  0.17343797  0.75000000  0.35903578  1
  Li  Li34  1  0.67343797  0.75000000  0.14096422  1
  Li  Li35  1  0.82656203  0.25000000  0.64096422  1
  Li  Li36  1  0.38060920  0.25000000  0.48261006  1
  Li  Li37  1  0.11939080  0.75000000  0.98261006  1
  Li  Li38  1  0.61939080  0.75000000  0.51738994  1
  Li  Li39  1  0.88060920  0.25000000  0.01738994  1
  Li  Li40  1  0.59706012  0.25000000  0.64531655  1
  Li  Li41  1  0.90293988  0.75000000  0.14531655  1
  Li  Li42  1  0.40293988  0.75000000  0.35468345  1
  Li  Li43  1  0.09706012  0.25000000  0.85468345  1
  Li  Li44  1  0.00000000  0.00000000  0.00000000  1
  Li  Li45  1  0.50000000  0.00000000  0.50000000  1
  Li  Li46  1  0.00000000  0.50000000  0.00000000  1
  Li  Li47  1  0.50000000  0.50000000  0.50000000  1
