# generated using pymatgen
data_LiF
_symmetry_space_group_name_H-M   'P 1'
_cell_length_a   11.25657094
_cell_length_b   21.23164615
_cell_length_c   6.26867922
_cell_angle_alpha   90.00000000
_cell_angle_beta   90.00000000
_cell_angle_gamma   90.00000000
_symmetry_Int_Tables_number   1
_chemical_formula_structural   LiF
_chemical_formula_sum   'Li58 F58'
_cell_volume   1498.18632035
_cell_formula_units_Z   58
loop_
 _symmetry_equiv_pos_site_id
 _symmetry_equiv_pos_as_xyz
  1  'x, y, z'
loop_
 _atom_site_type_symbol
 _atom_site_label
 _atom_site_symmetry_multiplicity
 _atom_site_fract_x
 _atom_site_fract_y
 _atom_site_fract_z
 _atom_site_occupancy
  F  F0  1  0.90921372  0.81924002  0.00000000  1
  F  F1  1  0.09078628  0.18075998  0.00000000  1
  F  F2  1  0.59078628  0.31924002  0.50000000  1
  F  F3  1  0.40921372  0.68075998  0.50000000  1
  F  F4  1  0.23694906  0.79884809  0.39368822  1
  F  F5  1  0.76305094  0.20115191  0.39368822  1
  F  F6  1  0.26305094  0.29884809  0.10631178  1
  F  F7  1  0.73694906  0.70115191  0.10631178  1
  F  F8  1  0.76305094  0.20115191  0.60631178  1
  F  F9  1  0.23694906  0.79884809  0.60631178  1
  F  F10  1  0.73694906  0.70115191  0.89368822  1
  F  F11  1  0.26305094  0.29884809  0.89368822  1
  F  F12  1  0.66557448  0.13060396  0.00000000  1
  F  F13  1  0.33442552  0.86939604  0.00000000  1
  F  F14  1  0.83442552  0.63060396  0.50000000  1
  F  F15  1  0.16557448  0.36939604  0.50000000  1
  F  F16  1  0.59102304  0.63709451  0.34284154  1
  F  F17  1  0.40897696  0.36290549  0.34284154  1
  F  F18  1  0.90897696  0.13709451  0.15715846  1
  F  F19  1  0.09102304  0.86290549  0.15715846  1
  F  F20  1  0.40897696  0.36290549  0.65715846  1
  F  F21  1  0.59102304  0.63709451  0.65715846  1
  F  F22  1  0.09102304  0.86290549  0.84284154  1
  F  F23  1  0.90897696  0.13709451  0.84284154  1
  F  F24  1  0.00000000  0.50000000  0.50000000  1
  F  F25  1  0.50000000  0.00000000  0.00000000  1
  F  F26  1  0.20512089  0.84750732  0.34054212  1
  F  F27  1  0.79487911  0.15249268  0.34054212  1
  F  F28  1  0.29487911  0.34750732  0.15945788  1
  F  F29  1  0.70512089  0.65249268  0.15945788  1
  F  F30  1  0.79487911  0.15249268  0.65945788  1
  F  F31  1  0.20512089  0.84750732  0.65945788  1
  F  F32  1  0.70512089  0.65249268  0.84054212  1
  F  F33  1  0.29487911  0.34750732  0.84054212  1
  F  F34  1  0.42467746  0.47687801  0.28326401  1
  F  F35  1  0.57532254  0.52312199  0.28326401  1
  F  F36  1  0.07532254  0.97687801  0.21673599  1
  F  F37  1  0.92467746  0.02312199  0.21673599  1
  F  F38  1  0.57532254  0.52312199  0.71673599  1
  F  F39  1  0.42467746  0.47687801  0.71673599  1
  F  F40  1  0.92467746  0.02312199  0.78326401  1
  F  F41  1  0.07532254  0.97687801  0.78326401  1
  F  F42  1  0.50469002  0.85417602  0.00000000  1
  F  F43  1  0.49530998  0.14582398  0.00000000  1
  F  F44  1  0.99530998  0.35417602  0.50000000  1
  F  F45  1  0.00469002  0.64582398  0.50000000  1
  F  F46  1  0.82927147  0.78135038  0.92282990  1
  F  F47  1  0.17072853  0.21864962  0.92282990  1
  F  F48  1  0.67072853  0.28135038  0.57717010  1
  F  F49  1  0.32927147  0.71864962  0.57717010  1
  F  F50  1  0.17072853  0.21864962  0.07717010  1
  F  F51  1  0.82927147  0.78135038  0.07717010  1
  F  F52  1  0.32927147  0.71864962  0.42282990  1
  F  F53  1  0.67072853  0.28135038  0.42282990  1
  F  F54  1  0.36180682  0.42858064  0.00000000  1
  F  F55  1  0.63819318  0.57141936  0.00000000  1
  F  F56  1  0.13819318  0.92858064  0.50000000  1
  F  F57  1  0.86180682  0.07141936  0.50000000  1
  Li  Li58  1  0.00000000  0.50000000  0.12373948  1
  Li  Li59  1  0.50000000  0.00000000  0.37626052  1
  Li  Li60  1  0.00000000  0.50000000  0.87626052  1
  Li  Li61  1  0.50000000  0.00000000  0.62373948  1
  Li  Li62  1  0.16108770  0.12475475  0.29700526  1
  Li  Li63  1  -0.16108770  -0.12475475  0.29700526  1
  Li  Li64  1  0.33891230  0.62475475  0.20299474  1
  Li  Li65  1  0.66108770  0.37524525  0.20299474  1
  Li  Li66  1  -0.16108770  -0.12475475  -0.29700526  1
  Li  Li67  1  0.16108770  0.12475475  -0.29700526  1
  Li  Li68  1  0.66108770  0.37524525  0.79700526  1
  Li  Li69  1  0.33891230  0.62475475  0.79700526  1
  Li  Li70  1  0.65472838  0.15950066  0.35084293  1
  Li  Li71  1  0.34527162  0.84049934  0.35084293  1
  Li  Li72  1  0.84527162  0.65950066  0.14915707  1
  Li  Li73  1  0.15472838  0.34049934  0.14915707  1
  Li  Li74  1  0.34527162  0.84049934  0.64915707  1
  Li  Li75  1  0.65472838  0.15950066  0.64915707  1
  Li  Li76  1  0.15472838  0.34049934  0.85084293  1
  Li  Li77  1  0.84527162  0.65950066  0.85084293  1
  Li  Li78  1  0.00000000  0.00000000  0.50000000  1
  Li  Li79  1  0.50000000  0.50000000  -0.00000000  1
  Li  Li80  1  0.65688776  0.15377917  0.13615619  1
  Li  Li81  1  0.34311224  0.84622083  0.13615619  1
  Li  Li82  1  0.84311224  0.65377917  0.36384381  1
  Li  Li83  1  0.15688776  0.34622083  0.36384381  1
  Li  Li84  1  0.34311224  0.84622083  0.86384381  1
  Li  Li85  1  0.65688776  0.15377917  0.86384381  1
  Li  Li86  1  0.15688776  0.34622083  0.63615619  1
  Li  Li87  1  0.84311224  0.65377917  0.63615619  1
  Li  Li88  1  0.59293262  0.28002437  0.72132084  1
  Li  Li89  1  0.40706738  0.71997563  0.72132084  1
  Li  Li90  1  0.90706738  0.78002437  0.77867916  1
  Li  Li91  1  0.09293262  0.21997563  0.77867916  1
  Li  Li92  1  0.40706738  0.71997563  0.27867916  1
  Li  Li93  1  0.59293262  0.28002437  0.27867916  1
  Li  Li94  1  0.09293262  0.21997563  0.22132084  1
  Li  Li95  1  0.90706738  0.78002437  0.22132084  1
  Li  Li96  1  0.89281922  0.46605694  0.23256057  1
  Li  Li97  1  0.10718078  0.53394306  0.23256057  1
  Li  Li98  1  0.60718078  0.96605694  0.26743943  1
  Li  Li99  1  0.39281922  0.03394306  0.26743943  1
  Li  Li100  1  0.10718078  0.53394306  0.76743943  1
  Li  Li101  1  0.89281922  0.46605694  0.76743943  1
  Li  Li102  1  0.39281922  0.03394306  0.73256057  1
  Li  Li103  1  0.60718078  0.96605694  0.73256057  1
  Li  Li104  1  0.16926523  0.68187672  0.21600450  1
  Li  Li105  1  0.83073477  0.31812328  0.21600450  1
  Li  Li106  1  0.33073477  0.18187672  0.28399550  1
  Li  Li107  1  0.66926523  0.81812328  0.28399550  1
  Li  Li108  1  0.83073477  0.31812328  0.78399550  1
  Li  Li109  1  0.16926523  0.68187672  0.78399550  1
  Li  Li110  1  0.66926523  0.81812328  0.71600450  1
  Li  Li111  1  0.33073477  0.18187672  0.71600450  1
  Li  Li112  1  0.00000000  0.00000000  0.15818643  1
  Li  Li113  1  0.50000000  0.50000000  0.34181357  1
  Li  Li114  1  0.00000000  0.00000000  0.84181357  1
  Li  Li115  1  0.50000000  0.50000000  0.65818643  1
