# generated using pymatgen
data_LiF
_symmetry_space_group_name_H-M   'P 1'
_cell_length_a   12.95394485
_cell_length_b   12.95394485
_cell_length_c   5.25017375
_cell_angle_alpha   90.00000000
_cell_angle_beta   90.00000000
_cell_angle_gamma   120.00000000
_symmetry_Int_Tables_number   1
_chemical_formula_structural   LiF
_chemical_formula_sum   'Li24 F24'
_cell_volume   762.97164081
_cell_formula_units_Z   24
loop_
 _symmetry_equiv_pos_site_id
 _symmetry_equiv_pos_as_xyz
  1  'x, y, z'
loop_
 _atom_site_type_symbol
 _atom_site_label
 _atom_site_symmetry_multiplicity
 _atom_site_fract_x
 _atom_site_fract_y
 _atom_site_fract_z
 _atom_site_occupancy
  F  F0  1  0.86028830  0.71552795  0.35108972  1
  F  F1  1  -0.71552795  0.14476035  0.35108972  1
  F  F2  1  -0.14476035  -0.86028830  0.35108972  1
  F  F3  1  -0.86028830  -0.71552795  0.85108972  1
  F  F4  1  0.71552795  -0.14476035  0.85108972  1
  F  F5  1  0.14476035  0.86028830  0.85108972  1
  F  F6  1  -0.86028830  -0.71552795  -0.35108972  1
  F  F7  1  0.71552795  -0.14476035  -0.35108972  1
  F  F8  1  0.14476035  0.86028830  -0.35108972  1
  F  F9  1  0.86028830  0.71552795  0.14891028  1
  F  F10  1  -0.71552795  0.14476035  0.14891028  1
  F  F11  1  -0.14476035  -0.86028830  0.14891028  1
  F  F12  1  0.54980180  0.82449660  0.25000000  1
  F  F13  1  0.17550340  0.72530520  0.25000000  1
  F  F14  1  0.27469480  0.45019820  0.25000000  1
  F  F15  1  0.45019820  0.17550340  0.75000000  1
  F  F16  1  0.82449660  0.27469480  0.75000000  1
  F  F17  1  0.72530520  0.54980180  0.75000000  1
  F  F18  1  0.33333333  0.66666667  0.84560514  1
  F  F19  1  0.66666667  0.33333333  0.34560514  1
  F  F20  1  0.66666667  0.33333333  0.15439486  1
  F  F21  1  0.33333333  0.66666667  0.65439486  1
  F  F22  1  0.00000000  0.00000000  0.25000000  1
  F  F23  1  0.00000000  0.00000000  0.75000000  1
  Li  Li24  1  0.95540731  0.61313343  0.93397596  1
  Li  Li25  1  0.38686657  0.34227388  0.93397596  1
  Li  Li26  1  0.65772612  0.04459269  0.93397596  1
  Li  Li27  1  0.04459269  0.38686657  0.43397596  1
  Li  Li28  1  0.61313343  0.65772612  0.43397596  1
  Li  Li29  1  0.34227388  0.95540731  0.43397596  1
  Li  Li30  1  0.04459269  0.38686657  0.06602404  1
  Li  Li31  1  0.61313343  0.65772612  0.06602404  1
  Li  Li32  1  0.34227388  0.95540731  0.06602404  1
  Li  Li33  1  0.95540731  0.61313343  0.56602404  1
  Li  Li34  1  0.38686657  0.34227388  0.56602404  1
  Li  Li35  1  0.65772612  0.04459269  0.56602404  1
  Li  Li36  1  0.00454929  0.80986383  0.25000000  1
  Li  Li37  1  0.19013617  0.19468546  0.25000000  1
  Li  Li38  1  0.80531454  0.99545071  0.25000000  1
  Li  Li39  1  0.99545071  0.19013617  0.75000000  1
  Li  Li40  1  0.80986383  0.80531454  0.75000000  1
  Li  Li41  1  0.19468546  0.00454929  0.75000000  1
  Li  Li42  1  0.50000000  -0.00000000  0.00000000  1
  Li  Li43  1  0.00000000  0.50000000  0.00000000  1
  Li  Li44  1  0.50000000  0.50000000  0.00000000  1
  Li  Li45  1  0.50000000  -0.00000000  0.50000000  1
  Li  Li46  1  0.00000000  0.50000000  0.50000000  1
  Li  Li47  1  0.50000000  0.50000000  0.50000000  1
