# generated using pymatgen
data_Li2Ca3F8
_symmetry_space_group_name_H-M   'P 1'
_cell_length_a   6.82792601
_cell_length_b   6.82792601
_cell_length_c   38.99819157
_cell_angle_alpha   90.00000000
_cell_angle_beta   90.00000000
_cell_angle_gamma   90.00000000
_symmetry_Int_Tables_number   1
_chemical_formula_structural   Li2Ca3F8
_chemical_formula_sum   'Li16 Ca24 F64'
_cell_volume   1818.11805878
_cell_formula_units_Z   8
loop_
 _symmetry_equiv_pos_site_id
 _symmetry_equiv_pos_as_xyz
  1  'x, y, z'
loop_
 _atom_site_type_symbol
 _atom_site_label
 _atom_site_symmetry_multiplicity
 _atom_site_fract_x
 _atom_site_fract_y
 _atom_site_fract_z
 _atom_site_occupancy
  Ca  Ca0  1  0.00000000  0.25000000  0.37500000  1
  Ca  Ca1  1  0.00000000  0.75000000  0.62500000  1
  Ca  Ca2  1  0.50000000  0.25000000  0.62500000  1
  Ca  Ca3  1  0.50000000  0.75000000  0.37500000  1
  Ca  Ca4  1  0.50000000  0.75000000  0.87500000  1
  Ca  Ca5  1  0.50000000  0.25000000  0.12500000  1
  Ca  Ca6  1  0.00000000  0.75000000  0.12500000  1
  Ca  Ca7  1  0.00000000  0.25000000  0.87500000  1
  Ca  Ca8  1  0.00000000  0.00000000  0.00000000  1
  Ca  Ca9  1  0.50000000  0.00000000  0.50000000  1
  Ca  Ca10  1  0.25000000  0.75000000  0.25000000  1
  Ca  Ca11  1  0.25000000  0.25000000  0.75000000  1
  Ca  Ca12  1  0.50000000  0.00000000  0.00000000  1
  Ca  Ca13  1  0.00000000  0.00000000  0.50000000  1
  Ca  Ca14  1  0.25000000  0.75000000  0.75000000  1
  Ca  Ca15  1  0.25000000  0.25000000  0.25000000  1
  Ca  Ca16  1  0.50000000  0.50000000  0.50000000  1
  Ca  Ca17  1  0.00000000  0.50000000  0.00000000  1
  Ca  Ca18  1  0.75000000  0.25000000  0.75000000  1
  Ca  Ca19  1  0.75000000  0.75000000  0.25000000  1
  Ca  Ca20  1  0.00000000  0.50000000  0.50000000  1
  Ca  Ca21  1  0.50000000  0.50000000  0.00000000  1
  Ca  Ca22  1  0.75000000  0.25000000  0.25000000  1
  Ca  Ca23  1  0.75000000  0.75000000  0.75000000  1
  F  F24  1  0.04583322  0.80731659  0.16704791  1
  F  F25  1  0.45416678  -0.80731659  0.66704791  1
  F  F26  1  -0.55731659  0.79583322  0.41704791  1
  F  F27  1  1.05731659  0.20416678  0.91704791  1
  F  F28  1  0.45416678  0.80731659  -0.16704791  1
  F  F29  1  0.04583322  -0.80731659  0.33295209  1
  F  F30  1  1.05731659  0.79583322  0.58295209  1
  F  F31  1  -0.55731659  0.20416678  0.08295209  1
  F  F32  1  -0.04583322  -0.80731659  -0.16704791  1
  F  F33  1  0.54583322  0.80731659  0.33295209  1
  F  F34  1  1.55731659  0.20416678  0.58295209  1
  F  F35  1  -0.05731659  0.79583322  0.08295209  1
  F  F36  1  0.54583322  -0.80731659  0.16704791  1
  F  F37  1  -0.04583322  0.80731659  0.66704791  1
  F  F38  1  -0.05731659  0.20416678  0.41704791  1
  F  F39  1  1.55731659  0.79583322  0.91704791  1
  F  F40  1  0.54583322  1.30731659  0.66704791  1
  F  F41  1  0.95416678  -0.30731659  1.16704791  1
  F  F42  1  -0.05731659  1.29583322  0.91704791  1
  F  F43  1  1.55731659  0.70416678  1.41704791  1
  F  F44  1  0.95416678  1.30731659  0.33295209  1
  F  F45  1  0.54583322  -0.30731659  0.83295209  1
  F  F46  1  1.55731659  1.29583322  1.08295209  1
  F  F47  1  -0.05731659  0.70416678  0.58295209  1
  F  F48  1  0.45416678  -0.30731659  0.33295209  1
  F  F49  1  1.04583322  1.30731659  0.83295209  1
  F  F50  1  2.05731659  0.70416678  1.08295209  1
  F  F51  1  0.44268341  1.29583322  0.58295209  1
  F  F52  1  1.04583322  -0.30731659  0.66704791  1
  F  F53  1  0.45416678  1.30731659  1.16704791  1
  F  F54  1  0.44268341  0.70416678  0.91704791  1
  F  F55  1  2.05731659  1.29583322  1.41704791  1
  F  F56  1  0.34969376  0.78195253  0.08358779  1
  F  F57  1  0.15030624  0.21804747  0.58358779  1
  F  F58  1  0.46804747  0.09969376  0.33358779  1
  F  F59  1  0.03195253  0.90030624  0.83358779  1
  F  F60  1  0.15030624  0.78195253  0.91641221  1
  F  F61  1  0.34969376  0.21804747  0.41641221  1
  F  F62  1  0.03195253  0.09969376  0.66641221  1
  F  F63  1  0.46804747  0.90030624  0.16641221  1
  F  F64  1  0.65030624  0.21804747  0.91641221  1
  F  F65  1  0.84969376  0.78195253  0.41641221  1
  F  F66  1  0.53195253  0.90030624  0.66641221  1
  F  F67  1  0.96804747  0.09969376  0.16641221  1
  F  F68  1  0.84969376  0.21804747  0.08358779  1
  F  F69  1  0.65030624  0.78195253  0.58358779  1
  F  F70  1  0.96804747  0.90030624  0.33358779  1
  F  F71  1  0.53195253  0.09969376  0.83358779  1
  F  F72  1  0.84969376  0.28195253  0.58358779  1
  F  F73  1  0.65030624  0.71804747  0.08358779  1
  F  F74  1  0.96804747  0.59969376  0.83358779  1
  F  F75  1  0.53195253  0.40030624  0.33358779  1
  F  F76  1  0.65030624  0.28195253  0.41641221  1
  F  F77  1  0.84969376  0.71804747  0.91641221  1
  F  F78  1  0.53195253  0.59969376  0.16641221  1
  F  F79  1  0.96804747  0.40030624  0.66641221  1
  F  F80  1  0.15030624  0.71804747  0.41641221  1
  F  F81  1  0.34969376  0.28195253  0.91641221  1
  F  F82  1  0.03195253  0.40030624  0.16641221  1
  F  F83  1  0.46804747  0.59969376  0.66641221  1
  F  F84  1  0.34969376  0.71804747  0.58358779  1
  F  F85  1  0.15030624  0.28195253  0.08358779  1
  F  F86  1  0.46804747  0.40030624  0.83358779  1
  F  F87  1  0.03195253  0.59969376  0.33358779  1
  Li  Li88  1  0.16659773  0.41659773  0.12500000  1
  Li  Li89  1  0.33340227  0.58340227  0.62500000  1
  Li  Li90  1  0.83340227  0.91659773  0.37500000  1
  Li  Li91  1  0.66659773  0.08340227  0.87500000  1
  Li  Li92  1  0.83340227  0.58340227  0.87500000  1
  Li  Li93  1  0.66659773  0.41659773  0.37500000  1
  Li  Li94  1  0.16659773  0.08340227  0.62500000  1
  Li  Li95  1  0.33340227  0.91659773  0.12500000  1
  Li  Li96  1  0.66659773  0.91659773  0.62500000  1
  Li  Li97  1  0.83340227  0.08340227  0.12500000  1
  Li  Li98  1  0.33340227  0.41659773  0.87500000  1
  Li  Li99  1  0.16659773  0.58340227  0.37500000  1
  Li  Li100  1  0.33340227  0.08340227  0.37500000  1
  Li  Li101  1  0.16659773  0.91659773  0.87500000  1
  Li  Li102  1  0.66659773  0.58340227  0.12500000  1
  Li  Li103  1  0.83340227  0.41659773  0.62500000  1
