# generated using pymatgen
data_LiF
_symmetry_space_group_name_H-M   'P 1'
_cell_length_a   5.35022316
_cell_length_b   10.62401984
_cell_length_c   8.76624715
_cell_angle_alpha   90.00000000
_cell_angle_beta   90.00000000
_cell_angle_gamma   90.00000000
_symmetry_Int_Tables_number   1
_chemical_formula_structural   LiF
_chemical_formula_sum   'Li24 F24'
_cell_volume   498.28117579
_cell_formula_units_Z   24
loop_
 _symmetry_equiv_pos_site_id
 _symmetry_equiv_pos_as_xyz
  1  'x, y, z'
loop_
 _atom_site_type_symbol
 _atom_site_label
 _atom_site_symmetry_multiplicity
 _atom_site_fract_x
 _atom_site_fract_y
 _atom_site_fract_z
 _atom_site_occupancy
  F  F0  1  0.21004315  0.19993500  0.34235763  1
  F  F1  1  0.28995685  0.80006500  0.84235763  1
  F  F2  1  0.78995685  0.69993500  0.65764237  1
  F  F3  1  0.71004315  0.30006500  0.15764237  1
  F  F4  1  0.78995685  0.80006500  0.65764237  1
  F  F5  1  0.71004315  0.19993500  0.15764237  1
  F  F6  1  0.21004315  0.30006500  0.34235763  1
  F  F7  1  0.28995685  0.69993500  0.84235763  1
  F  F8  1  0.55430885  0.34891265  0.03704273  1
  F  F9  1  0.94569115  0.65108735  0.53704273  1
  F  F10  1  0.44569115  0.84891265  0.96295727  1
  F  F11  1  0.05430885  0.15108735  0.46295727  1
  F  F12  1  0.44569115  0.65108735  0.96295727  1
  F  F13  1  0.05430885  0.34891265  0.46295727  1
  F  F14  1  0.55430885  0.15108735  0.03704273  1
  F  F15  1  0.94569115  0.84891265  0.53704273  1
  F  F16  1  0.28737400  0.90054644  0.48220500  1
  F  F17  1  0.21262600  0.09945356  0.98220500  1
  F  F18  1  0.71262600  0.40054644  0.51779500  1
  F  F19  1  0.78737400  0.59945356  0.01779500  1
  F  F20  1  0.71262600  0.09945356  0.51779500  1
  F  F21  1  0.78737400  0.90054644  0.01779500  1
  F  F22  1  0.28737400  0.59945356  0.48220500  1
  F  F23  1  0.21262600  0.40054644  0.98220500  1
  Li  Li24  1  0.86651189  0.25000000  0.88615088  1
  Li  Li25  1  0.63348811  0.75000000  0.38615088  1
  Li  Li26  1  0.13348811  0.75000000  0.11384912  1
  Li  Li27  1  0.36651189  0.25000000  0.61384912  1
  Li  Li28  1  0.37811488  0.83852703  0.55035985  1
  Li  Li29  1  0.12188512  -0.83852703  1.05035985  1
  Li  Li30  1  -0.37811488  1.33852703  -0.55035985  1
  Li  Li31  1  0.87811488  -0.33852703  -0.05035985  1
  Li  Li32  1  -0.37811488  -0.83852703  -0.55035985  1
  Li  Li33  1  0.87811488  0.83852703  -0.05035985  1
  Li  Li34  1  0.37811488  -0.33852703  0.55035985  1
  Li  Li35  1  0.12188512  1.33852703  1.05035985  1
  Li  Li36  1  0.63837198  0.25000000  0.27100643  1
  Li  Li37  1  0.86162802  0.75000000  0.77100643  1
  Li  Li38  1  0.36162802  0.75000000  0.72899357  1
  Li  Li39  1  0.13837198  0.25000000  0.22899357  1
  Li  Li40  1  0.76188865  0.61049485  0.28749689  1
  Li  Li41  1  0.73811135  0.38950515  0.78749689  1
  Li  Li42  1  0.23811135  0.11049485  0.71250311  1
  Li  Li43  1  0.26188865  0.88950515  0.21250311  1
  Li  Li44  1  0.23811135  0.38950515  0.71250311  1
  Li  Li45  1  0.26188865  0.61049485  0.21250311  1
  Li  Li46  1  0.76188865  0.88950515  0.28749689  1
  Li  Li47  1  0.73811135  0.11049485  0.78749689  1
