# generated using pymatgen
data_LiF
_symmetry_space_group_name_H-M   'P 1'
_cell_length_a   10.40633106
_cell_length_b   10.40633106
_cell_length_c   8.84226804
_cell_angle_alpha   90.00000000
_cell_angle_beta   90.00000000
_cell_angle_gamma   120.00000000
_symmetry_Int_Tables_number   1
_chemical_formula_structural   LiF
_chemical_formula_sum   'Li32 F32'
_cell_volume   829.25783496
_cell_formula_units_Z   32
loop_
 _symmetry_equiv_pos_site_id
 _symmetry_equiv_pos_as_xyz
  1  'x, y, z'
loop_
 _atom_site_type_symbol
 _atom_site_label
 _atom_site_symmetry_multiplicity
 _atom_site_fract_x
 _atom_site_fract_y
 _atom_site_fract_z
 _atom_site_occupancy
  F  F0  1  0.94178688  0.05821312  -0.00000000  1
  F  F1  1  0.94178688  0.88357375  0.00000000  1
  F  F2  1  0.11642625  0.05821312  0.00000000  1
  F  F3  1  0.69264474  0.65925460  0.18003827  1
  F  F4  1  0.34074540  0.03339014  0.18003827  1
  F  F5  1  0.96660986  0.30735526  0.18003827  1
  F  F6  1  0.34074540  0.30735526  0.81996173  1
  F  F7  1  0.96660986  0.65925460  0.81996173  1
  F  F8  1  0.69264474  0.03339014  0.81996173  1
  F  F9  1  0.07325743  0.95115263  0.24613358  1
  F  F10  1  0.04884737  0.12210480  0.24613358  1
  F  F11  1  0.87789520  0.92674257  0.24613358  1
  F  F12  1  0.04884737  0.92674257  0.75386642  1
  F  F13  1  0.87789520  0.95115263  0.75386642  1
  F  F14  1  0.07325743  0.12210480  0.75386642  1
  F  F15  1  0.94262494  0.85180810  0.87188679  1
  F  F16  1  0.14819190  0.09081684  0.87188679  1
  F  F17  1  0.90918316  0.05737506  0.87188679  1
  F  F18  1  0.14819190  0.05737506  0.12811321  1
  F  F19  1  0.90918316  0.85180810  0.12811321  1
  F  F20  1  0.94262494  0.09081684  0.12811321  1
  F  F21  1  0.51596264  0.38401528  0.53034485  1
  F  F22  1  0.61598472  0.13194736  0.53034485  1
  F  F23  1  0.86805264  0.48403736  0.53034485  1
  F  F24  1  0.61598472  0.48403736  0.46965515  1
  F  F25  1  0.86805264  0.38401528  0.46965515  1
  F  F26  1  0.51596264  0.13194736  0.46965515  1
  F  F27  1  0.78735195  0.21264805  0.00000000  1
  F  F28  1  0.78735195  0.57470389  0.00000000  1
  F  F29  1  0.42529611  0.21264805  -0.00000000  1
  F  F30  1  0.00000000  0.00000000  0.22392523  1
  F  F31  1  0.00000000  0.00000000  0.77607477  1
  Li  Li32  1  0.54627741  0.97126757  0.44729187  1
  Li  Li33  1  -0.97126757  -0.42499015  0.44729187  1
  Li  Li34  1  0.42499015  -0.54627741  0.44729187  1
  Li  Li35  1  -0.97126757  -0.54627741  -0.44729187  1
  Li  Li36  1  0.42499015  0.97126757  -0.44729187  1
  Li  Li37  1  0.54627741  -0.42499015  -0.44729187  1
  Li  Li38  1  0.14640692  0.85359308  0.50000000  1
  Li  Li39  1  0.14640692  0.29281384  0.50000000  1
  Li  Li40  1  0.70718616  0.85359308  0.50000000  1
  Li  Li41  1  0.07949355  0.33565259  0.23101927  1
  Li  Li42  1  0.66434741  0.74384096  0.23101927  1
  Li  Li43  1  0.25615904  0.92050645  0.23101927  1
  Li  Li44  1  0.66434741  0.92050645  0.76898073  1
  Li  Li45  1  0.25615904  0.33565259  0.76898073  1
  Li  Li46  1  0.07949355  0.74384096  0.76898073  1
  Li  Li47  1  0.00000000  0.00000000  0.50000000  1
  Li  Li48  1  0.08619347  0.07464183  0.63861967  1
  Li  Li49  1  0.92535817  0.01155164  0.63861967  1
  Li  Li50  1  0.98844836  0.91380653  0.63861967  1
  Li  Li51  1  0.92535817  0.91380653  0.36138033  1
  Li  Li52  1  0.98844836  0.07464183  0.36138033  1
  Li  Li53  1  0.08619347  0.01155164  0.36138033  1
  Li  Li54  1  0.59996514  0.64462194  0.70724526  1
  Li  Li55  1  0.35537806  0.95534320  0.70724526  1
  Li  Li56  1  0.04465680  0.40003486  0.70724526  1
  Li  Li57  1  0.35537806  0.40003486  0.29275474  1
  Li  Li58  1  0.04465680  0.64462194  0.29275474  1
  Li  Li59  1  0.59996514  0.95534320  0.29275474  1
  Li  Li60  1  0.54627740  0.45372260  0.00000000  1
  Li  Li61  1  0.54627740  0.09255480  0.00000000  1
  Li  Li62  1  0.90744520  0.45372260  0.00000000  1
  Li  Li63  1  0.33333333  0.66666667  0.00000000  1
