# generated using pymatgen
data_LiF
_symmetry_space_group_name_H-M   'P 1'
_cell_length_a   11.84401560
_cell_length_b   11.84401560
_cell_length_c   15.85019656
_cell_angle_alpha   90.00000000
_cell_angle_beta   90.00000000
_cell_angle_gamma   120.00000000
_symmetry_Int_Tables_number   1
_chemical_formula_structural   LiF
_chemical_formula_sum   'Li54 F54'
_cell_volume   1925.58735657
_cell_formula_units_Z   54
loop_
 _symmetry_equiv_pos_site_id
 _symmetry_equiv_pos_as_xyz
  1  'x, y, z'
loop_
 _atom_site_type_symbol
 _atom_site_label
 _atom_site_symmetry_multiplicity
 _atom_site_fract_x
 _atom_site_fract_y
 _atom_site_fract_z
 _atom_site_occupancy
  F  F0  1  0.28283157  0.72259822  0.69402671  1
  F  F1  1  0.27740178  0.56023334  0.69402671  1
  F  F2  1  0.43976666  0.71716843  0.69402671  1
  F  F3  1  0.72259822  0.28283157  0.80597329  1
  F  F4  1  0.56023334  0.27740178  0.80597329  1
  F  F5  1  0.71716843  0.43976666  0.80597329  1
  F  F6  1  0.71716843  0.27740178  0.30597329  1
  F  F7  1  0.72259822  0.43976666  0.30597329  1
  F  F8  1  0.56023334  0.28283157  0.30597329  1
  F  F9  1  0.27740178  0.71716843  0.19402671  1
  F  F10  1  0.43976666  0.72259822  0.19402671  1
  F  F11  1  0.28283157  0.56023334  0.19402671  1
  F  F12  1  0.94949823  0.05593156  0.02736004  1
  F  F13  1  0.94406844  0.89356668  0.02736004  1
  F  F14  1  0.10643332  0.05050177  0.02736004  1
  F  F15  1  0.38926489  0.61616490  0.13930662  1
  F  F16  1  0.22690001  0.61073511  0.13930662  1
  F  F17  1  0.38383510  0.77309999  0.13930662  1
  F  F18  1  0.38383510  0.61073511  0.63930662  1
  F  F19  1  0.38926489  0.77309999  0.63930662  1
  F  F20  1  0.22690001  0.61616490  0.63930662  1
  F  F21  1  0.94406844  0.05050177  0.52736004  1
  F  F22  1  0.10643332  0.05593156  0.52736004  1
  F  F23  1  0.94949823  0.89356668  0.52736004  1
  F  F24  1  0.61616490  0.38926489  0.36069338  1
  F  F25  1  0.61073511  0.22690001  0.36069338  1
  F  F26  1  0.77309999  0.38383510  0.36069338  1
  F  F27  1  0.05593156  0.94949823  0.47263996  1
  F  F28  1  0.89356668  0.94406844  0.47263996  1
  F  F29  1  0.05050177  0.10643332  0.47263996  1
  F  F30  1  0.05050177  0.94406844  0.97263996  1
  F  F31  1  0.05593156  0.10643332  0.97263996  1
  F  F32  1  0.89356668  0.94949823  0.97263996  1
  F  F33  1  0.61073511  0.38383510  0.86069338  1
  F  F34  1  0.77309999  0.38926489  0.86069338  1
  F  F35  1  0.61616490  0.22690001  0.86069338  1
  F  F36  1  0.00000000  0.00000000  0.00000000  1
  F  F37  1  0.00000000  0.00000000  0.50000000  1
  F  F38  1  0.66666667  0.33333333  0.33333333  1
  F  F39  1  0.66666667  0.33333333  0.83333333  1
  F  F40  1  0.33333333  0.66666667  0.66666667  1
  F  F41  1  0.33333333  0.66666667  0.16666667  1
  F  F42  1  0.00000000  0.00000000  0.67726646  1
  F  F43  1  0.00000000  0.00000000  0.82273354  1
  F  F44  1  0.00000000  0.00000000  0.32273354  1
  F  F45  1  0.00000000  0.00000000  0.17726646  1
  F  F46  1  0.66666667  0.33333333  0.01059980  1
  F  F47  1  0.66666667  0.33333333  0.15606687  1
  F  F48  1  0.66666667  0.33333333  0.65606687  1
  F  F49  1  0.66666667  0.33333333  0.51059980  1
  F  F50  1  0.33333333  0.66666667  0.34393313  1
  F  F51  1  0.33333333  0.66666667  0.48940020  1
  F  F52  1  0.33333333  0.66666667  0.98940020  1
  F  F53  1  0.33333333  0.66666667  0.84393313  1
  Li  Li54  1  0.91777729  0.83565809  0.65199722  1
  Li  Li55  1  -0.83565809  0.08211919  0.65199722  1
  Li  Li56  1  -0.08211919  -0.91777729  0.65199722  1
  Li  Li57  1  0.83565809  0.91777729  -0.15199722  1
  Li  Li58  1  0.08211919  -0.83565809  -0.15199722  1
  Li  Li59  1  -0.91777729  -0.08211919  -0.15199722  1
  Li  Li60  1  -0.91777729  -0.83565809  -0.65199722  1
  Li  Li61  1  0.83565809  -0.08211919  -0.65199722  1
  Li  Li62  1  0.08211919  0.91777729  -0.65199722  1
  Li  Li63  1  -0.83565809  -0.91777729  1.15199722  1
  Li  Li64  1  -0.08211919  0.83565809  1.15199722  1
  Li  Li65  1  0.91777729  0.08211919  1.15199722  1
  Li  Li66  1  1.58444395  1.16899143  0.98533056  1
  Li  Li67  1  -0.16899143  0.41545253  0.98533056  1
  Li  Li68  1  0.58454747  -0.58444395  0.98533056  1
  Li  Li69  1  1.50232476  1.25111062  0.18133611  1
  Li  Li70  1  0.74878586  -0.50232476  0.18133611  1
  Li  Li71  1  -0.25111062  0.25121414  0.18133611  1
  Li  Li72  1  -0.25111062  -0.50232476  -0.31866389  1
  Li  Li73  1  1.50232476  0.25121414  -0.31866389  1
  Li  Li74  1  0.74878586  1.25111062  -0.31866389  1
  Li  Li75  1  -0.16899143  -0.58444395  1.48533056  1
  Li  Li76  1  0.58454747  1.16899143  1.48533056  1
  Li  Li77  1  1.58444395  0.41545253  1.48533056  1
  Li  Li78  1  1.25111062  1.50232476  1.31866389  1
  Li  Li79  1  -0.50232476  0.74878586  1.31866389  1
  Li  Li80  1  0.25121414  -0.25111062  1.31866389  1
  Li  Li81  1  1.16899143  1.58444395  0.51466944  1
  Li  Li82  1  0.41545253  -0.16899143  0.51466944  1
  Li  Li83  1  -0.58444395  0.58454747  0.51466944  1
  Li  Li84  1  -0.58444395  -0.16899143  0.01466944  1
  Li  Li85  1  1.16899143  0.58454747  0.01466944  1
  Li  Li86  1  0.41545253  1.58444395  0.01466944  1
  Li  Li87  1  -0.50232476  -0.25111062  1.81866389  1
  Li  Li88  1  0.25121414  1.50232476  1.81866389  1
  Li  Li89  1  1.25111062  0.74878586  1.81866389  1
  Li  Li90  1  0.50000000  0.00000000  0.00000000  1
  Li  Li91  1  0.00000000  0.50000000  0.00000000  1
  Li  Li92  1  0.50000000  0.50000000  0.00000000  1
  Li  Li93  1  0.00000000  0.50000000  0.50000000  1
  Li  Li94  1  0.50000000  0.00000000  0.50000000  1
  Li  Li95  1  0.50000000  0.50000000  0.50000000  1
  Li  Li96  1  0.16666667  0.33333333  0.33333333  1
  Li  Li97  1  0.66666667  0.83333333  0.33333333  1
  Li  Li98  1  0.16666667  0.83333333  0.33333333  1
  Li  Li99  1  0.66666667  0.83333333  0.83333333  1
  Li  Li100  1  0.16666667  0.33333333  0.83333333  1
  Li  Li101  1  0.16666667  0.83333333  0.83333333  1
  Li  Li102  1  0.83333333  0.66666667  0.66666667  1
  Li  Li103  1  0.33333333  0.16666667  0.66666667  1
  Li  Li104  1  0.83333333  0.16666667  0.66666667  1
  Li  Li105  1  0.33333333  0.16666667  0.16666667  1
  Li  Li106  1  0.83333333  0.66666667  0.16666667  1
  Li  Li107  1  0.83333333  0.16666667  0.16666667  1
