# generated using pymatgen
data_LiF
_symmetry_space_group_name_H-M   'P 1'
_cell_length_a   4.85013861
_cell_length_b   11.62846575
_cell_length_c   9.18465773
_cell_angle_alpha   90.00000000
_cell_angle_beta   90.00000000
_cell_angle_gamma   90.00000000
_symmetry_Int_Tables_number   1
_chemical_formula_structural   LiF
_chemical_formula_sum   'Li24 F24'
_cell_volume   518.01167171
_cell_formula_units_Z   24
loop_
 _symmetry_equiv_pos_site_id
 _symmetry_equiv_pos_as_xyz
  1  'x, y, z'
loop_
 _atom_site_type_symbol
 _atom_site_label
 _atom_site_symmetry_multiplicity
 _atom_site_fract_x
 _atom_site_fract_y
 _atom_site_fract_z
 _atom_site_occupancy
  F  F0  1  0.39436484  0.49689525  0.54422270  1
  F  F1  1  0.10563516  0.50310475  0.04422270  1
  F  F2  1  0.60563516  0.99689525  0.45577730  1
  F  F3  1  0.89436484  0.00310475  0.95577730  1
  F  F4  1  0.60563516  0.50310475  0.45577730  1
  F  F5  1  0.89436484  0.49689525  0.95577730  1
  F  F6  1  0.39436484  0.00310475  0.54422270  1
  F  F7  1  0.10563516  0.99689525  0.04422270  1
  F  F8  1  0.35520476  0.25000000  0.33166290  1
  F  F9  1  0.14479524  0.75000000  0.83166290  1
  F  F10  1  0.64479524  0.75000000  0.66833710  1
  F  F11  1  0.85520476  0.25000000  0.16833710  1
  F  F12  1  0.30420141  0.47641397  0.95318306  1
  F  F13  1  0.19579859  0.52358603  0.45318306  1
  F  F14  1  0.69579859  0.97641397  0.04681694  1
  F  F15  1  0.80420141  0.02358603  0.54681694  1
  F  F16  1  0.69579859  0.52358603  0.04681694  1
  F  F17  1  0.80420141  0.47641397  0.54681694  1
  F  F18  1  0.30420141  0.02358603  0.95318306  1
  F  F19  1  0.19579859  0.97641397  0.45318306  1
  F  F20  1  0.00000000  0.00000000  0.00000000  1
  F  F21  1  0.50000000  0.00000000  0.50000000  1
  F  F22  1  0.00000000  0.50000000  0.00000000  1
  F  F23  1  0.50000000  0.50000000  0.50000000  1
  Li  Li24  1  0.86112612  0.25000000  0.92515083  1
  Li  Li25  1  0.63887388  0.75000000  0.42515083  1
  Li  Li26  1  0.13887388  0.75000000  0.07484917  1
  Li  Li27  1  0.36112612  0.25000000  0.57484917  1
  Li  Li28  1  0.31254686  0.15490120  0.67951756  1
  Li  Li29  1  0.18745314  -0.15490120  1.17951756  1
  Li  Li30  1  -0.31254686  0.65490120  -0.67951756  1
  Li  Li31  1  0.81254686  0.34509880  -0.17951756  1
  Li  Li32  1  -0.31254686  -0.15490120  -0.67951756  1
  Li  Li33  1  0.81254686  0.15490120  -0.17951756  1
  Li  Li34  1  0.31254686  0.34509880  0.67951756  1
  Li  Li35  1  0.18745314  0.65490120  1.17951756  1
  Li  Li36  1  0.42896599  0.25000000  0.88393397  1
  Li  Li37  1  0.07103401  0.75000000  0.38393397  1
  Li  Li38  1  0.57103401  0.75000000  0.11606603  1
  Li  Li39  1  0.92896599  0.25000000  0.61606603  1
  Li  Li40  1  0.75196844  0.81825160  0.87348351  1
  Li  Li41  1  0.74803156  0.18174840  0.37348351  1
  Li  Li42  1  0.24803156  0.31825160  0.12651649  1
  Li  Li43  1  0.25196844  0.68174840  0.62651649  1
  Li  Li44  1  0.24803156  0.18174840  0.12651649  1
  Li  Li45  1  0.25196844  0.81825160  0.62651649  1
  Li  Li46  1  0.75196844  0.68174840  0.87348351  1
  Li  Li47  1  0.74803156  0.31825160  0.37348351  1
