# generated using pymatgen
data_LiF
_symmetry_space_group_name_H-M   'P 1'
_cell_length_a   12.32459979
_cell_length_b   12.32459979
_cell_length_c   12.41868872
_cell_angle_alpha   90.00000000
_cell_angle_beta   90.00000000
_cell_angle_gamma   120.00000000
_symmetry_Int_Tables_number   1
_chemical_formula_structural   LiF
_chemical_formula_sum   'Li48 F48'
_cell_volume   1633.62369548
_cell_formula_units_Z   48
loop_
 _symmetry_equiv_pos_site_id
 _symmetry_equiv_pos_as_xyz
  1  'x, y, z'
loop_
 _atom_site_type_symbol
 _atom_site_label
 _atom_site_symmetry_multiplicity
 _atom_site_fract_x
 _atom_site_fract_y
 _atom_site_fract_z
 _atom_site_occupancy
  F  F0  1  0.67536402  0.37290042  0.34764898  1
  F  F1  1  -0.37290042  0.30246360  0.34764898  1
  F  F2  1  -0.30246360  -0.67536402  0.34764898  1
  F  F3  1  -0.67536402  -0.37290042  0.84764898  1
  F  F4  1  0.37290042  -0.30246360  0.84764898  1
  F  F5  1  0.30246360  0.67536402  0.84764898  1
  F  F6  1  -0.67536402  -0.37290042  -0.34764898  1
  F  F7  1  0.37290042  -0.30246360  -0.34764898  1
  F  F8  1  0.30246360  0.67536402  -0.34764898  1
  F  F9  1  0.67536402  0.37290042  0.15235102  1
  F  F10  1  -0.37290042  0.30246360  0.15235102  1
  F  F11  1  -0.30246360  -0.67536402  0.15235102  1
  F  F12  1  0.33333333  0.66666667  0.25000000  1
  F  F13  1  0.66666667  0.33333333  0.75000000  1
  F  F14  1  0.44131571  0.43450296  0.25000000  1
  F  F15  1  0.56549704  0.00681276  0.25000000  1
  F  F16  1  0.99318724  0.55868429  0.25000000  1
  F  F17  1  0.55868429  0.56549704  0.75000000  1
  F  F18  1  0.43450296  0.99318724  0.75000000  1
  F  F19  1  0.00681276  0.44131571  0.75000000  1
  F  F20  1  0.68448863  0.30147620  0.62094111  1
  F  F21  1  0.69852380  0.38301243  0.62094111  1
  F  F22  1  0.61698757  0.31551137  0.62094111  1
  F  F23  1  0.31551137  0.69852380  0.12094111  1
  F  F24  1  0.30147620  0.61698757  0.12094111  1
  F  F25  1  0.38301243  0.68448863  0.12094111  1
  F  F26  1  0.31551137  0.69852380  0.37905889  1
  F  F27  1  0.30147620  0.61698757  0.37905889  1
  F  F28  1  0.38301243  0.68448863  0.37905889  1
  F  F29  1  0.68448863  0.30147620  0.87905889  1
  F  F30  1  0.69852380  0.38301243  0.87905889  1
  F  F31  1  0.61698757  0.31551137  0.87905889  1
  F  F32  1  0.00000000  0.00000000  0.25000000  1
  F  F33  1  0.00000000  0.00000000  0.75000000  1
  F  F34  1  0.90266179  0.24146782  0.00539656  1
  F  F35  1  0.75853218  0.66119396  0.00539656  1
  F  F36  1  0.33880604  0.09733821  0.00539656  1
  F  F37  1  0.09733821  0.75853218  0.50539656  1
  F  F38  1  0.24146782  0.33880604  0.50539656  1
  F  F39  1  0.66119396  0.90266179  0.50539656  1
  F  F40  1  0.09733821  0.75853218  0.99460344  1
  F  F41  1  0.24146782  0.33880604  0.99460344  1
  F  F42  1  0.66119396  0.90266179  0.99460344  1
  F  F43  1  0.90266179  0.24146782  0.49460344  1
  F  F44  1  0.75853218  0.66119396  0.49460344  1
  F  F45  1  0.33880604  0.09733821  0.49460344  1
  F  F46  1  0.66666667  0.33333333  0.25000000  1
  F  F47  1  0.33333333  0.66666667  0.75000000  1
  Li  Li48  1  0.36167879  0.34843899  0.33524327  1
  Li  Li49  1  0.65156101  0.01323980  0.33524327  1
  Li  Li50  1  0.98676020  0.63832121  0.33524327  1
  Li  Li51  1  0.63832121  0.65156101  0.83524327  1
  Li  Li52  1  0.34843899  0.98676020  0.83524327  1
  Li  Li53  1  0.01323980  0.36167879  0.83524327  1
  Li  Li54  1  0.63832121  0.65156101  0.66475673  1
  Li  Li55  1  0.34843899  0.98676020  0.66475673  1
  Li  Li56  1  0.01323980  0.36167879  0.66475673  1
  Li  Li57  1  0.36167879  0.34843899  0.16475673  1
  Li  Li58  1  0.65156101  0.01323980  0.16475673  1
  Li  Li59  1  0.98676020  0.63832121  0.16475673  1
  Li  Li60  1  0.41507723  0.61532268  0.95301174  1
  Li  Li61  1  0.38467732  0.79975456  0.95301174  1
  Li  Li62  1  0.20024544  0.58492277  0.95301174  1
  Li  Li63  1  0.58492277  0.38467732  0.45301174  1
  Li  Li64  1  0.61532268  0.20024544  0.45301174  1
  Li  Li65  1  0.79975456  0.41507723  0.45301174  1
  Li  Li66  1  0.58492277  0.38467732  0.04698826  1
  Li  Li67  1  0.61532268  0.20024544  0.04698826  1
  Li  Li68  1  0.79975456  0.41507723  0.04698826  1
  Li  Li69  1  0.41507723  0.61532268  0.54698826  1
  Li  Li70  1  0.38467732  0.79975456  0.54698826  1
  Li  Li71  1  0.20024544  0.58492277  0.54698826  1
  Li  Li72  1  0.86560921  0.73441642  0.82670404  1
  Li  Li73  1  0.26558358  0.13119278  0.82670404  1
  Li  Li74  1  0.86880722  0.13439079  0.82670404  1
  Li  Li75  1  0.13439079  0.26558358  0.32670404  1
  Li  Li76  1  0.73441642  0.86880722  0.32670404  1
  Li  Li77  1  0.13119278  0.86560921  0.32670404  1
  Li  Li78  1  0.13439079  0.26558358  0.17329596  1
  Li  Li79  1  0.73441642  0.86880722  0.17329596  1
  Li  Li80  1  0.13119278  0.86560921  0.17329596  1
  Li  Li81  1  0.86560921  0.73441642  0.67329596  1
  Li  Li82  1  0.26558358  0.13119278  0.67329596  1
  Li  Li83  1  0.86880722  0.13439079  0.67329596  1
  Li  Li84  1  0.47175574  0.24888855  0.81100742  1
  Li  Li85  1  0.75111145  0.22286719  0.81100742  1
  Li  Li86  1  0.77713281  0.52824426  0.81100742  1
  Li  Li87  1  0.52824426  0.75111145  0.31100742  1
  Li  Li88  1  0.24888855  0.77713281  0.31100742  1
  Li  Li89  1  0.22286719  0.47175574  0.31100742  1
  Li  Li90  1  0.52824426  0.75111145  0.18899258  1
  Li  Li91  1  0.24888855  0.77713281  0.18899258  1
  Li  Li92  1  0.22286719  0.47175574  0.18899258  1
  Li  Li93  1  0.47175574  0.24888855  0.68899258  1
  Li  Li94  1  0.75111145  0.22286719  0.68899258  1
  Li  Li95  1  0.77713281  0.52824426  0.68899258  1
