# generated using pymatgen
data_LiF
_symmetry_space_group_name_H-M   'P 1'
_cell_length_a   7.61941715
_cell_length_b   7.37561419
_cell_length_c   7.59470261
_cell_angle_alpha   90.00000000
_cell_angle_beta   90.00000000
_cell_angle_gamma   90.00000000
_symmetry_Int_Tables_number   1
_chemical_formula_structural   LiF
_chemical_formula_sum   'Li24 F24'
_cell_volume   426.80619527
_cell_formula_units_Z   24
loop_
 _symmetry_equiv_pos_site_id
 _symmetry_equiv_pos_as_xyz
  1  'x, y, z'
loop_
 _atom_site_type_symbol
 _atom_site_label
 _atom_site_symmetry_multiplicity
 _atom_site_fract_x
 _atom_site_fract_y
 _atom_site_fract_z
 _atom_site_occupancy
  F  F0  1  0.58097996  0.25000000  0.04730975  1
  F  F1  1  0.91902004  0.75000000  0.54730975  1
  F  F2  1  0.41902004  0.75000000  0.95269025  1
  F  F3  1  0.08097996  0.25000000  0.45269025  1
  F  F4  1  0.30816282  0.34835931  0.74432707  1
  F  F5  1  0.19183718  0.65164069  0.24432707  1
  F  F6  1  0.69183718  0.84835931  0.25567293  1
  F  F7  1  0.80816282  0.15164069  0.75567293  1
  F  F8  1  0.69183718  0.65164069  0.25567293  1
  F  F9  1  0.80816282  0.34835931  0.75567293  1
  F  F10  1  0.30816282  0.15164069  0.74432707  1
  F  F11  1  0.19183718  0.84835931  0.24432707  1
  F  F12  1  0.49189373  0.25000000  0.74660234  1
  F  F13  1  0.00810627  0.75000000  0.24660234  1
  F  F14  1  0.50810627  0.75000000  0.25339766  1
  F  F15  1  0.99189373  0.25000000  0.75339766  1
  F  F16  1  0.00000000  0.00000000  0.00000000  1
  F  F17  1  0.50000000  0.00000000  0.50000000  1
  F  F18  1  0.00000000  0.50000000  0.00000000  1
  F  F19  1  0.50000000  0.50000000  0.50000000  1
  F  F20  1  0.18626311  0.25000000  0.30039850  1
  F  F21  1  0.31373689  0.75000000  0.80039850  1
  F  F22  1  0.81373689  0.75000000  0.69960150  1
  F  F23  1  0.68626311  0.25000000  0.19960150  1
  Li  Li24  1  0.11903316  0.64487767  0.02524488  1
  Li  Li25  1  0.38096684  -0.64487767  0.52524488  1
  Li  Li26  1  -0.11903316  1.14487767  -0.02524488  1
  Li  Li27  1  0.61903316  -0.14487767  0.47475512  1
  Li  Li28  1  -0.11903316  -0.64487767  -0.02524488  1
  Li  Li29  1  0.61903316  0.64487767  0.47475512  1
  Li  Li30  1  0.11903316  -0.14487767  0.02524488  1
  Li  Li31  1  0.38096684  1.14487767  0.52524488  1
  Li  Li32  1  0.00502015  0.52442337  0.75689943  1
  Li  Li33  1  0.49497985  0.47557663  0.25689943  1
  Li  Li34  1  0.99497985  0.02442337  0.24310057  1
  Li  Li35  1  0.50502015  0.97557663  0.74310057  1
  Li  Li36  1  0.99497985  0.47557663  0.24310057  1
  Li  Li37  1  0.50502015  0.52442337  0.74310057  1
  Li  Li38  1  0.00502015  0.97557663  0.75689943  1
  Li  Li39  1  0.49497985  0.02442337  0.25689943  1
  Li  Li40  1  0.00000000  0.00000000  0.50000000  1
  Li  Li41  1  0.50000000  0.00000000  0.00000000  1
  Li  Li42  1  0.00000000  0.50000000  0.50000000  1
  Li  Li43  1  0.50000000  0.50000000  -0.00000000  1
  Li  Li44  1  0.90220464  0.25000000  0.40658170  1
  Li  Li45  1  0.59779536  0.75000000  0.90658170  1
  Li  Li46  1  0.09779536  0.75000000  0.59341830  1
  Li  Li47  1  0.40220464  0.25000000  0.09341830  1
