# generated using pymatgen
data_LiF
_symmetry_space_group_name_H-M   'P 1'
_cell_length_a   7.80845876
_cell_length_b   7.76383903
_cell_length_c   7.17225809
_cell_angle_alpha   90.00000000
_cell_angle_beta   90.00000000
_cell_angle_gamma   90.00000000
_symmetry_Int_Tables_number   1
_chemical_formula_structural   LiF
_chemical_formula_sum   'Li24 F24'
_cell_volume   434.80822685
_cell_formula_units_Z   24
loop_
 _symmetry_equiv_pos_site_id
 _symmetry_equiv_pos_as_xyz
  1  'x, y, z'
loop_
 _atom_site_type_symbol
 _atom_site_label
 _atom_site_symmetry_multiplicity
 _atom_site_fract_x
 _atom_site_fract_y
 _atom_site_fract_z
 _atom_site_occupancy
  F  F0  1  0.46040161  0.25000000  0.52655257  1
  F  F1  1  0.03959839  0.75000000  0.02655257  1
  F  F2  1  0.53959839  0.75000000  0.47344743  1
  F  F3  1  0.96040161  0.25000000  0.97344743  1
  F  F4  1  0.37890482  0.25000000  0.51695133  1
  F  F5  1  0.12109518  0.75000000  0.01695133  1
  F  F6  1  0.62109518  0.75000000  0.48304867  1
  F  F7  1  0.87890482  0.25000000  0.98304867  1
  F  F8  1  0.99456780  0.29133079  0.81763164  1
  F  F9  1  0.50543220  0.70866921  0.31763164  1
  F  F10  1  0.00543220  0.79133079  0.18236836  1
  F  F11  1  0.49456780  0.20866921  0.68236836  1
  F  F12  1  0.00543220  0.70866921  0.18236836  1
  F  F13  1  0.49456780  0.29133079  0.68236836  1
  F  F14  1  0.99456780  0.20866921  0.81763164  1
  F  F15  1  0.50543220  0.79133079  0.31763164  1
  F  F16  1  0.32063341  0.59264223  0.05747899  1
  F  F17  1  0.17936659  0.40735777  0.55747899  1
  F  F18  1  0.67936659  0.09264223  0.94252101  1
  F  F19  1  0.82063341  0.90735777  0.44252101  1
  F  F20  1  0.67936659  0.40735777  0.94252101  1
  F  F21  1  0.82063341  0.59264223  0.44252101  1
  F  F22  1  0.32063341  0.90735777  0.05747899  1
  F  F23  1  0.17936659  0.09264223  0.55747899  1
  Li  Li24  1  0.26052227  0.36481567  0.38986287  1
  Li  Li25  1  0.23947773  -0.36481567  0.88986287  1
  Li  Li26  1  -0.26052227  0.86481567  -0.38986287  1
  Li  Li27  1  0.76052227  0.13518433  0.11013713  1
  Li  Li28  1  -0.26052227  -0.36481567  -0.38986287  1
  Li  Li29  1  0.76052227  0.36481567  0.11013713  1
  Li  Li30  1  0.26052227  0.13518433  0.38986287  1
  Li  Li31  1  0.23947773  0.86481567  0.88986287  1
  Li  Li32  1  0.00000000  0.00000000  0.00000000  1
  Li  Li33  1  0.50000000  0.00000000  0.50000000  1
  Li  Li34  1  0.00000000  0.50000000  0.00000000  1
  Li  Li35  1  0.50000000  0.50000000  0.50000000  1
  Li  Li36  1  0.00000000  0.00000000  0.50000000  1
  Li  Li37  1  0.50000000  0.00000000  0.00000000  1
  Li  Li38  1  0.00000000  0.50000000  0.50000000  1
  Li  Li39  1  0.50000000  0.50000000  0.00000000  1
  Li  Li40  1  0.24987457  0.38170268  0.06114118  1
  Li  Li41  1  0.25012543  0.61829732  0.56114118  1
  Li  Li42  1  0.75012543  0.88170268  0.93885882  1
  Li  Li43  1  0.74987457  0.11829732  0.43885882  1
  Li  Li44  1  0.75012543  0.61829732  0.93885882  1
  Li  Li45  1  0.74987457  0.38170268  0.43885882  1
  Li  Li46  1  0.24987457  0.11829732  0.06114118  1
  Li  Li47  1  0.25012543  0.88170268  0.56114118  1
