# generated using pymatgen
data_LiF
_symmetry_space_group_name_H-M   'P 1'
_cell_length_a   8.68630576
_cell_length_b   8.68630576
_cell_length_c   16.90151541
_cell_angle_alpha   90.00000000
_cell_angle_beta   90.00000000
_cell_angle_gamma   120.00000000
_symmetry_Int_Tables_number   1
_chemical_formula_structural   LiF
_chemical_formula_sum   'Li60 F60'
_cell_volume   1104.40026545
_cell_formula_units_Z   60
loop_
 _symmetry_equiv_pos_site_id
 _symmetry_equiv_pos_as_xyz
  1  'x, y, z'
loop_
 _atom_site_type_symbol
 _atom_site_label
 _atom_site_symmetry_multiplicity
 _atom_site_fract_x
 _atom_site_fract_y
 _atom_site_fract_z
 _atom_site_occupancy
  F  F0  1  0.28124594  0.22988126  0.45122058  1
  F  F1  1  0.77011874  0.05136468  0.45122058  1
  F  F2  1  0.94863532  0.71875406  0.45122058  1
  F  F3  1  0.22988126  0.28124594  0.04877942  1
  F  F4  1  0.05136468  0.77011874  0.04877942  1
  F  F5  1  0.71875406  0.94863532  0.04877942  1
  F  F6  1  0.71875406  0.77011874  0.54877942  1
  F  F7  1  0.22988126  0.94863532  0.54877942  1
  F  F8  1  0.05136468  0.28124594  0.54877942  1
  F  F9  1  0.77011874  0.71875406  0.95122058  1
  F  F10  1  0.94863532  0.22988126  0.95122058  1
  F  F11  1  0.28124594  0.05136468  0.95122058  1
  F  F12  1  0.94791261  0.56321459  0.78455391  1
  F  F13  1  0.43678541  0.38469801  0.78455391  1
  F  F14  1  0.61530199  0.05208739  0.78455391  1
  F  F15  1  0.89654793  0.61457927  0.38211275  1
  F  F16  1  0.71803135  0.10345207  0.38211275  1
  F  F17  1  0.38542073  0.28196865  0.38211275  1
  F  F18  1  0.38542073  0.10345207  0.88211275  1
  F  F19  1  0.89654793  0.28196865  0.88211275  1
  F  F20  1  0.71803135  0.61457927  0.88211275  1
  F  F21  1  0.43678541  0.05208739  0.28455391  1
  F  F22  1  0.61530199  0.56321459  0.28455391  1
  F  F23  1  0.94791261  0.38469801  0.28455391  1
  F  F24  1  0.61457927  0.89654793  0.11788725  1
  F  F25  1  0.10345207  0.71803135  0.11788725  1
  F  F26  1  0.28196865  0.38542073  0.11788725  1
  F  F27  1  0.56321459  0.94791261  0.71544609  1
  F  F28  1  0.38469801  0.43678541  0.71544609  1
  F  F29  1  0.05208739  0.61530199  0.71544609  1
  F  F30  1  0.05208739  0.43678541  0.21544609  1
  F  F31  1  0.56321459  0.61530199  0.21544609  1
  F  F32  1  0.38469801  0.94791261  0.21544609  1
  F  F33  1  0.10345207  0.38542073  0.61788725  1
  F  F34  1  0.28196865  0.89654793  0.61788725  1
  F  F35  1  0.61457927  0.71803135  0.61788725  1
  F  F36  1  0.63798659  -0.00000000  0.25000000  1
  F  F37  1  0.00000000  0.63798659  0.25000000  1
  F  F38  1  0.36201341  0.36201341  0.25000000  1
  F  F39  1  0.36201341  -0.00000000  0.75000000  1
  F  F40  1  0.00000000  0.36201341  0.75000000  1
  F  F41  1  0.63798659  0.63798659  0.75000000  1
  F  F42  1  0.30465325  0.33333333  0.58333333  1
  F  F43  1  0.66666667  0.97131992  0.58333333  1
  F  F44  1  0.02868008  0.69534675  0.58333333  1
  F  F45  1  0.02868008  0.33333333  0.08333333  1
  F  F46  1  0.66666667  0.69534675  0.08333333  1
  F  F47  1  0.30465325  0.97131992  0.08333333  1
  F  F48  1  0.97131992  0.66666667  0.91666667  1
  F  F49  1  0.33333333  0.30465325  0.91666667  1
  F  F50  1  0.69534675  0.02868008  0.91666667  1
  F  F51  1  0.69534675  0.66666667  0.41666667  1
  F  F52  1  0.33333333  0.02868008  0.41666667  1
  F  F53  1  0.97131992  0.30465325  0.41666667  1
  F  F54  1  0.00000000  0.00000000  0.00000000  1
  F  F55  1  0.00000000  0.00000000  0.50000000  1
  F  F56  1  0.66666667  0.33333333  0.33333333  1
  F  F57  1  0.66666667  0.33333333  0.83333333  1
  F  F58  1  0.33333333  0.66666667  0.66666667  1
  F  F59  1  0.33333333  0.66666667  0.16666667  1
  Li  Li60  1  0.27326007  0.33313376  0.97084837  1
  Li  Li61  1  -0.33313376  -0.05987369  0.97084837  1
  Li  Li62  1  0.05987369  -0.27326007  0.97084837  1
  Li  Li63  1  0.33313376  0.27326007  -0.47084837  1
  Li  Li64  1  -0.05987369  -0.33313376  -0.47084837  1
  Li  Li65  1  -0.27326007  0.05987369  -0.47084837  1
  Li  Li66  1  -0.27326007  -0.33313376  -0.97084837  1
  Li  Li67  1  0.33313376  0.05987369  -0.97084837  1
  Li  Li68  1  -0.05987369  0.27326007  -0.97084837  1
  Li  Li69  1  -0.33313376  -0.27326007  1.47084837  1
  Li  Li70  1  0.05987369  0.33313376  1.47084837  1
  Li  Li71  1  0.27326007  -0.05987369  1.47084837  1
  Li  Li72  1  0.93992674  0.66646709  1.30418170  1
  Li  Li73  1  0.33353291  0.27345965  1.30418170  1
  Li  Li74  1  0.72654035  0.06007326  1.30418170  1
  Li  Li75  1  0.99980042  0.60659340  -0.13751504  1
  Li  Li76  1  0.60679298  0.00019958  -0.13751504  1
  Li  Li77  1  0.39340660  0.39320702  -0.13751504  1
  Li  Li78  1  0.39340660  0.00019958  -0.63751504  1
  Li  Li79  1  0.99980042  0.39320702  -0.63751504  1
  Li  Li80  1  0.60679298  0.60659340  -0.63751504  1
  Li  Li81  1  0.33353291  0.06007326  1.80418170  1
  Li  Li82  1  0.72654035  0.66646709  1.80418170  1
  Li  Li83  1  0.93992674  0.27345965  1.80418170  1
  Li  Li84  1  0.60659340  0.99980042  1.63751504  1
  Li  Li85  1  0.00019958  0.60679298  1.63751504  1
  Li  Li86  1  0.39320702  0.39340660  1.63751504  1
  Li  Li87  1  0.66646709  0.93992674  0.19581830  1
  Li  Li88  1  0.27345965  0.33353291  0.19581830  1
  Li  Li89  1  0.06007326  0.72654035  0.19581830  1
  Li  Li90  1  0.06007326  0.33353291  -0.30418170  1
  Li  Li91  1  0.66646709  0.72654035  -0.30418170  1
  Li  Li92  1  0.27345965  0.93992674  -0.30418170  1
  Li  Li93  1  0.00019958  0.39340660  2.13751504  1
  Li  Li94  1  0.39320702  0.99980042  2.13751504  1
  Li  Li95  1  0.60659340  0.60679298  2.13751504  1
  Li  Li96  1  0.00000000  0.00000000  0.25000000  1
  Li  Li97  1  0.00000000  0.00000000  0.75000000  1
  Li  Li98  1  0.66666667  0.33333333  0.58333333  1
  Li  Li99  1  0.66666667  0.33333333  0.08333333  1
  Li  Li100  1  0.33333333  0.66666667  0.91666667  1
  Li  Li101  1  0.33333333  0.66666667  0.41666667  1
  Li  Li102  1  0.85124962  0.00000000  0.25000000  1
  Li  Li103  1  0.00000000  0.85124962  0.25000000  1
  Li  Li104  1  0.14875038  0.14875038  0.25000000  1
  Li  Li105  1  0.14875038  0.00000000  0.75000000  1
  Li  Li106  1  0.00000000  0.14875038  0.75000000  1
  Li  Li107  1  0.85124962  0.85124962  0.75000000  1
  Li  Li108  1  0.51791629  0.33333333  0.58333333  1
  Li  Li109  1  0.66666667  0.18458295  0.58333333  1
  Li  Li110  1  0.81541705  0.48208371  0.58333333  1
  Li  Li111  1  0.81541705  0.33333333  0.08333333  1
  Li  Li112  1  0.66666667  0.48208371  0.08333333  1
  Li  Li113  1  0.51791629  0.18458295  0.08333333  1
  Li  Li114  1  0.18458295  0.66666667  0.91666667  1
  Li  Li115  1  0.33333333  0.51791629  0.91666667  1
  Li  Li116  1  0.48208371  0.81541705  0.91666667  1
  Li  Li117  1  0.48208371  0.66666667  0.41666667  1
  Li  Li118  1  0.33333333  0.81541705  0.41666667  1
  Li  Li119  1  0.18458295  0.51791629  0.41666667  1
