# generated using pymatgen
data_Li2Y2Sb2MoP2
_symmetry_space_group_name_H-M   'P 1'
_cell_length_a   4.99769988
_cell_length_b   5.10451716
_cell_length_c   7.14011015
_cell_angle_alpha   94.82925837
_cell_angle_beta   100.51712073
_cell_angle_gamma   109.39721150
_symmetry_Int_Tables_number   1
_chemical_formula_structural   Li2Y2Sb2MoP2
_chemical_formula_sum   'Li2 Y2 Sb2 Mo1 P2'
_cell_volume   166.85282274
_cell_formula_units_Z   1
loop_
 _symmetry_equiv_pos_site_id
 _symmetry_equiv_pos_as_xyz
  1  'x, y, z'
loop_
 _atom_site_type_symbol
 _atom_site_label
 _atom_site_symmetry_multiplicity
 _atom_site_fract_x
 _atom_site_fract_y
 _atom_site_fract_z
 _atom_site_occupancy
  Y  Y0  1  0.12500000  0.00000000  0.25000000  1
  Y  Y1  1  0.00000000  0.00000000  0.00000000  1
  P  P2  1  0.37500000  0.00000000  0.25000000  1
  P  P3  1  0.25000000  0.25000000  0.25000000  1
  Mo  Mo4  1  0.00000000  0.25000000  0.12500000  1
  Li  Li5  1  0.20503648  0.29216758  0.65529776  1
  Li  Li6  1  0.69199208  0.76045643  0.45335281  1
  Sb  Sb7  1  0.66617613  0.71511891  0.40286653  1
  Sb  Sb8  1  0.00824919  0.12878518  0.14184131  1
