# generated using pymatgen
data_LiF
_symmetry_space_group_name_H-M   'P 1'
_cell_length_a   9.60403840
_cell_length_b   9.60403840
_cell_length_c   9.73126757
_cell_angle_alpha   90.00000000
_cell_angle_beta   90.00000000
_cell_angle_gamma   120.00000000
_symmetry_Int_Tables_number   1
_chemical_formula_structural   LiF
_chemical_formula_sum   'Li30 F30'
_cell_volume   777.33428154
_cell_formula_units_Z   30
loop_
 _symmetry_equiv_pos_site_id
 _symmetry_equiv_pos_as_xyz
  1  'x, y, z'
loop_
 _atom_site_type_symbol
 _atom_site_label
 _atom_site_symmetry_multiplicity
 _atom_site_fract_x
 _atom_site_fract_y
 _atom_site_fract_z
 _atom_site_occupancy
  F  F0  1  0.43964765  0.56035235  0.50000000  1
  F  F1  1  0.43964765  0.87929530  0.50000000  1
  F  F2  1  0.12070470  0.56035235  0.50000000  1
  F  F3  1  0.66666667  0.33333333  0.50000000  1
  F  F4  1  0.27870324  0.49647289  0.75961834  1
  F  F5  1  0.50352711  0.78223035  0.75961834  1
  F  F6  1  0.21776965  0.72129676  0.75961834  1
  F  F7  1  0.50352711  0.72129676  0.24038166  1
  F  F8  1  0.21776965  0.49647289  0.24038166  1
  F  F9  1  0.27870324  0.78223035  0.24038166  1
  F  F10  1  0.16439302  0.94667370  0.87456024  1
  F  F11  1  0.05332630  0.21771932  0.87456024  1
  F  F12  1  0.78228068  0.83560698  0.87456024  1
  F  F13  1  0.05332630  0.83560698  0.12543976  1
  F  F14  1  0.78228068  0.94667370  0.12543976  1
  F  F15  1  0.16439302  0.21771932  0.12543976  1
  F  F16  1  0.33333333  0.66666667  0.11177508  1
  F  F17  1  0.33333333  0.66666667  0.88822492  1
  F  F18  1  0.08204546  0.93947129  0.28876436  1
  F  F19  1  0.06052871  0.14257417  0.28876436  1
  F  F20  1  0.85742583  0.91795454  0.28876436  1
  F  F21  1  0.06052871  0.91795454  0.71123564  1
  F  F22  1  0.85742583  0.93947129  0.71123564  1
  F  F23  1  0.08204546  0.14257417  0.71123564  1
  F  F24  1  0.33333333  0.66666667  0.25950226  1
  F  F25  1  0.33333333  0.66666667  0.74049774  1
  F  F26  1  0.93803110  0.06196890  0.50000000  1
  F  F27  1  0.93803110  0.87606220  0.50000000  1
  F  F28  1  0.12393780  0.06196890  0.50000000  1
  F  F29  1  0.33333333  0.66666667  0.50000000  1
  Li  Li30  1  0.16797260  0.61010253  0.85759534  1
  Li  Li31  1  -0.61010253  -0.44212993  0.85759534  1
  Li  Li32  1  0.44212993  -0.16797260  0.85759534  1
  Li  Li33  1  -0.61010253  -0.16797260  -0.85759534  1
  Li  Li34  1  0.44212993  0.61010253  -0.85759534  1
  Li  Li35  1  0.16797260  -0.44212993  -0.85759534  1
  Li  Li36  1  0.41077521  0.34540262  0.63965145  1
  Li  Li37  1  0.65459738  0.06537259  0.63965145  1
  Li  Li38  1  0.93462741  0.58922479  0.63965145  1
  Li  Li39  1  0.65459738  0.58922479  0.36034855  1
  Li  Li40  1  0.93462741  0.34540262  0.36034855  1
  Li  Li41  1  0.41077521  0.06537259  0.36034855  1
  Li  Li42  1  0.75423534  0.31630448  0.81031377  1
  Li  Li43  1  0.68369552  0.43793086  0.81031377  1
  Li  Li44  1  0.56206914  0.24576466  0.81031377  1
  Li  Li45  1  0.68369552  0.24576466  0.18968623  1
  Li  Li46  1  0.56206914  0.31630448  0.18968623  1
  Li  Li47  1  0.75423534  0.43793086  0.18968623  1
  Li  Li48  1  0.91450410  0.89291018  0.19276009  1
  Li  Li49  1  0.10708982  0.02159393  0.19276009  1
  Li  Li50  1  0.97840607  0.08549590  0.19276009  1
  Li  Li51  1  0.10708982  0.08549590  0.80723991  1
  Li  Li52  1  0.97840607  0.89291018  0.80723991  1
  Li  Li53  1  0.91450410  0.02159393  0.80723991  1
  Li  Li54  1  0.16917576  0.85943013  0.62064690  1
  Li  Li55  1  0.14056987  0.30974563  0.62064690  1
  Li  Li56  1  0.69025437  0.83082424  0.62064690  1
  Li  Li57  1  0.14056987  0.83082424  0.37935310  1
  Li  Li58  1  0.69025437  0.85943013  0.37935310  1
  Li  Li59  1  0.16917576  0.30974563  0.37935310  1
