# generated using pymatgen
data_LiY2Cu3P2
_symmetry_space_group_name_H-M   'P 1'
_cell_length_a   4.69885295
_cell_length_b   4.91553780
_cell_length_c   6.81702369
_cell_angle_alpha   95.15806690
_cell_angle_beta   100.72881364
_cell_angle_gamma   109.92689753
_symmetry_Int_Tables_number   1
_chemical_formula_structural   LiY2Cu3P2
_chemical_formula_sum   'Li1 Y2 Cu3 P2'
_cell_volume   143.42232006
_cell_formula_units_Z   1
loop_
 _symmetry_equiv_pos_site_id
 _symmetry_equiv_pos_as_xyz
  1  'x, y, z'
loop_
 _atom_site_type_symbol
 _atom_site_label
 _atom_site_symmetry_multiplicity
 _atom_site_fract_x
 _atom_site_fract_y
 _atom_site_fract_z
 _atom_site_occupancy
  Y  Y0  1  0.00000000  0.00000000  0.00000000  1
  Y  Y1  1  0.33300000  0.66700000  0.25000000  1
  P  P2  1  0.66700000  0.33300000  0.50000000  1
  P  P3  1  0.00000000  0.00000000  0.75000000  1
  Li  Li4  1  0.74600483  0.97972739  0.76020602  1
  Cu  Cu5  1  0.29931506  0.57262568  0.49131580  1
  Cu  Cu6  1  0.70032703  0.43407091  0.15207395  1
  Cu  Cu7  1  0.97617708  0.55391584  0.83646357  1
