# generated using pymatgen
data_Li2Mo2P4Se
_symmetry_space_group_name_H-M   'P 1'
_cell_length_a   4.22580689
_cell_length_b   4.60306236
_cell_length_c   6.13235304
_cell_angle_alpha   93.38024143
_cell_angle_beta   98.88059335
_cell_angle_gamma   105.41134930
_symmetry_Int_Tables_number   1
_chemical_formula_structural   Li2Mo2P4Se
_chemical_formula_sum   'Li2 Mo2 P4 Se1'
_cell_volume   112.98898147
_cell_formula_units_Z   1
loop_
 _symmetry_equiv_pos_site_id
 _symmetry_equiv_pos_as_xyz
  1  'x, y, z'
loop_
 _atom_site_type_symbol
 _atom_site_label
 _atom_site_symmetry_multiplicity
 _atom_site_fract_x
 _atom_site_fract_y
 _atom_site_fract_z
 _atom_site_occupancy
  P  P0  1  0.00000000  0.00000000  0.00000000  1
  P  P1  1  0.33300000  0.66700000  0.25000000  1
  P  P2  1  0.66700000  0.33300000  0.50000000  1
  P  P3  1  0.00000000  0.00000000  0.75000000  1
  Mo  Mo4  1  0.73237814  0.87510010  0.97023706  1
  Mo  Mo5  1  0.16701671  0.90475289  0.14605964  1
  Se  Se6  1  0.51238394  0.50426794  0.31532408  1
  Li  Li7  1  0.86039939  0.49153953  0.42916188  1
  Li  Li8  1  0.67036179  0.93744932  0.84518377  1
