# generated using pymatgen
data_LiF
_symmetry_space_group_name_H-M   'P 1'
_cell_length_a   9.95594357
_cell_length_b   8.18990847
_cell_length_c   8.05712998
_cell_angle_alpha   90.00000000
_cell_angle_beta   90.00000000
_cell_angle_gamma   90.00000000
_symmetry_Int_Tables_number   1
_chemical_formula_structural   LiF
_chemical_formula_sum   'Li24 F24'
_cell_volume   656.96441189
_cell_formula_units_Z   24
loop_
 _symmetry_equiv_pos_site_id
 _symmetry_equiv_pos_as_xyz
  1  'x, y, z'
loop_
 _atom_site_type_symbol
 _atom_site_label
 _atom_site_symmetry_multiplicity
 _atom_site_fract_x
 _atom_site_fract_y
 _atom_site_fract_z
 _atom_site_occupancy
  F  F0  1  0.37533051  0.30745157  0.24560309  1
  F  F1  1  0.12466949  0.69254843  0.74560309  1
  F  F2  1  0.62466949  0.80745157  0.75439691  1
  F  F3  1  0.87533051  0.19254843  0.25439691  1
  F  F4  1  0.62466949  0.69254843  0.75439691  1
  F  F5  1  0.87533051  0.30745157  0.25439691  1
  F  F6  1  0.37533051  0.19254843  0.24560309  1
  F  F7  1  0.12466949  0.80745157  0.74560309  1
  F  F8  1  0.26188180  0.91248043  0.57254735  1
  F  F9  1  0.23811820  0.08751957  0.07254735  1
  F  F10  1  0.73811820  0.41248043  0.42745265  1
  F  F11  1  0.76188180  0.58751957  0.92745265  1
  F  F12  1  0.73811820  0.08751957  0.42745265  1
  F  F13  1  0.76188180  0.91248043  0.92745265  1
  F  F14  1  0.26188180  0.58751957  0.57254735  1
  F  F15  1  0.23811820  0.41248043  0.07254735  1
  F  F16  1  0.47794344  0.03253775  0.87673908  1
  F  F17  1  0.02205656  0.96746225  0.37673908  1
  F  F18  1  0.52205656  0.53253775  0.12326092  1
  F  F19  1  0.97794344  0.46746225  0.62326092  1
  F  F20  1  0.52205656  0.96746225  0.12326092  1
  F  F21  1  0.97794344  0.03253775  0.62326092  1
  F  F22  1  0.47794344  0.46746225  0.87673908  1
  F  F23  1  0.02205656  0.53253775  0.37673908  1
  Li  Li24  1  0.00000000  0.00000000  0.00000000  1
  Li  Li25  1  0.50000000  0.00000000  0.50000000  1
  Li  Li26  1  0.00000000  0.50000000  0.00000000  1
  Li  Li27  1  0.50000000  0.50000000  0.50000000  1
  Li  Li28  1  0.00000000  0.00000000  0.50000000  1
  Li  Li29  1  0.50000000  0.00000000  0.00000000  1
  Li  Li30  1  0.00000000  0.50000000  0.50000000  1
  Li  Li31  1  0.50000000  0.50000000  0.00000000  1
  Li  Li32  1  0.24406898  0.11395770  0.70160978  1
  Li  Li33  1  0.25593102  -0.11395770  1.20160978  1
  Li  Li34  1  -0.24406898  0.61395770  -0.70160978  1
  Li  Li35  1  0.74406898  0.38604230  -0.20160978  1
  Li  Li36  1  -0.24406898  -0.11395770  -0.70160978  1
  Li  Li37  1  0.74406898  0.11395770  -0.20160978  1
  Li  Li38  1  0.24406898  0.38604230  0.70160978  1
  Li  Li39  1  0.25593102  0.61395770  1.20160978  1
  Li  Li40  1  0.93070793  0.97461658  0.22223852  1
  Li  Li41  1  0.56929207  0.02538342  0.72223852  1
  Li  Li42  1  0.06929207  0.47461658  0.77776148  1
  Li  Li43  1  0.43070793  0.52538342  0.27776148  1
  Li  Li44  1  0.06929207  0.02538342  0.77776148  1
  Li  Li45  1  0.43070793  0.97461658  0.27776148  1
  Li  Li46  1  0.93070793  0.52538342  0.22223852  1
  Li  Li47  1  0.56929207  0.47461658  0.72223852  1
