# generated using pymatgen
data_Li2YP3Se2
_symmetry_space_group_name_H-M   'P 1'
_cell_length_a   4.73227926
_cell_length_b   4.83923934
_cell_length_c   7.05298357
_cell_angle_alpha   95.65109661
_cell_angle_beta   102.30691358
_cell_angle_gamma   112.69820911
_symmetry_Int_Tables_number   1
_chemical_formula_structural   Li2YP3Se2
_chemical_formula_sum   'Li2 Y1 P3 Se2'
_cell_volume   142.62778912
_cell_formula_units_Z   1
loop_
 _symmetry_equiv_pos_site_id
 _symmetry_equiv_pos_as_xyz
  1  'x, y, z'
loop_
 _atom_site_type_symbol
 _atom_site_label
 _atom_site_symmetry_multiplicity
 _atom_site_fract_x
 _atom_site_fract_y
 _atom_site_fract_z
 _atom_site_occupancy
  P  P0  1  0.00000000  0.00000000  0.00000000  1
  P  P1  1  0.33300000  0.66700000  0.25000000  1
  P  P2  1  0.66700000  0.33300000  0.50000000  1
  Se  Se3  1  0.00000000  0.00000000  0.75000000  1
  Se  Se4  1  0.63845288  0.42165630  0.54540416  1
  Li  Li5  1  0.51957247  0.91779207  0.58359274  1
  Li  Li6  1  0.59355832  0.54466107  0.06563653  1
  Y  Y7  1  0.04936681  0.66765076  0.85987562  1
