# generated using pymatgen
data_LiF
_symmetry_space_group_name_H-M   'P 1'
_cell_length_a   5.58265756
_cell_length_b   11.30033676
_cell_length_c   13.66281917
_cell_angle_alpha   90.00000000
_cell_angle_beta   90.00000000
_cell_angle_gamma   90.00000000
_symmetry_Int_Tables_number   1
_chemical_formula_structural   LiF
_chemical_formula_sum   'Li36 F36'
_cell_volume   861.93138689
_cell_formula_units_Z   36
loop_
 _symmetry_equiv_pos_site_id
 _symmetry_equiv_pos_as_xyz
  1  'x, y, z'
loop_
 _atom_site_type_symbol
 _atom_site_label
 _atom_site_symmetry_multiplicity
 _atom_site_fract_x
 _atom_site_fract_y
 _atom_site_fract_z
 _atom_site_occupancy
  F  F0  1  0.40483147  0.25000000  0.51388519  1
  F  F1  1  0.09516853  0.75000000  0.01388519  1
  F  F2  1  0.59516853  0.75000000  0.48611481  1
  F  F3  1  0.90483147  0.25000000  0.98611481  1
  F  F4  1  0.01142037  0.14102889  0.16858285  1
  F  F5  1  0.48857963  0.85897111  0.66858285  1
  F  F6  1  0.98857963  0.64102889  0.83141715  1
  F  F7  1  0.51142037  0.35897111  0.33141715  1
  F  F8  1  0.98857963  0.85897111  0.83141715  1
  F  F9  1  0.51142037  0.14102889  0.33141715  1
  F  F10  1  0.01142037  0.35897111  0.16858285  1
  F  F11  1  0.48857963  0.64102889  0.66858285  1
  F  F12  1  0.89662861  0.50483627  0.15368490  1
  F  F13  1  0.60337139  0.49516373  0.65368490  1
  F  F14  1  0.10337139  0.00483627  0.84631510  1
  F  F15  1  0.39662861  0.99516373  0.34631510  1
  F  F16  1  0.10337139  0.49516373  0.84631510  1
  F  F17  1  0.39662861  0.50483627  0.34631510  1
  F  F18  1  0.89662861  0.99516373  0.15368490  1
  F  F19  1  0.60337139  0.00483627  0.65368490  1
  F  F20  1  0.33821257  0.70555445  0.23832985  1
  F  F21  1  0.16178743  0.29444555  0.73832985  1
  F  F22  1  0.66178743  0.20555445  0.76167015  1
  F  F23  1  0.83821257  0.79444555  0.26167015  1
  F  F24  1  0.66178743  0.29444555  0.76167015  1
  F  F25  1  0.83821257  0.70555445  0.26167015  1
  F  F26  1  0.33821257  0.79444555  0.23832985  1
  F  F27  1  0.16178743  0.20555445  0.73832985  1
  F  F28  1  0.69252309  0.08926296  0.43636090  1
  F  F29  1  0.80747691  0.91073704  0.93636090  1
  F  F30  1  0.30747691  0.58926296  0.56363910  1
  F  F31  1  0.19252309  0.41073704  0.06363910  1
  F  F32  1  0.30747691  0.91073704  0.56363910  1
  F  F33  1  0.19252309  0.08926296  0.06363910  1
  F  F34  1  0.69252309  0.41073704  0.43636090  1
  F  F35  1  0.80747691  0.58926296  0.93636090  1
  Li  Li36  1  0.57069831  0.48985815  0.06163880  1
  Li  Li37  1  -0.07069831  -0.48985815  0.56163880  1
  Li  Li38  1  -0.57069831  0.98985815  -0.06163880  1
  Li  Li39  1  1.07069831  0.01014185  0.43836120  1
  Li  Li40  1  -0.57069831  -0.48985815  -0.06163880  1
  Li  Li41  1  1.07069831  0.48985815  0.43836120  1
  Li  Li42  1  0.57069831  0.01014185  0.06163880  1
  Li  Li43  1  -0.07069831  0.98985815  0.56163880  1
  Li  Li44  1  0.25018369  0.45344211  0.18778945  1
  Li  Li45  1  0.24981631  0.54655789  0.68778945  1
  Li  Li46  1  0.74981631  0.95344211  0.81221055  1
  Li  Li47  1  0.75018369  0.04655789  0.31221055  1
  Li  Li48  1  0.74981631  0.54655789  0.81221055  1
  Li  Li49  1  0.75018369  0.45344211  0.31221055  1
  Li  Li50  1  0.25018369  0.04655789  0.18778945  1
  Li  Li51  1  0.24981631  0.95344211  0.68778945  1
  Li  Li52  1  0.65606833  0.25000000  0.20067048  1
  Li  Li53  1  0.84393167  0.75000000  0.70067048  1
  Li  Li54  1  0.34393167  0.75000000  0.79932952  1
  Li  Li55  1  0.15606833  0.25000000  0.29932952  1
  Li  Li56  1  0.77063867  0.13182859  0.49753862  1
  Li  Li57  1  0.72936133  0.86817141  0.99753862  1
  Li  Li58  1  0.22936133  0.63182859  0.50246138  1
  Li  Li59  1  0.27063867  0.36817141  0.00246138  1
  Li  Li60  1  0.22936133  0.86817141  0.50246138  1
  Li  Li61  1  0.27063867  0.13182859  0.00246138  1
  Li  Li62  1  0.77063867  0.36817141  0.49753862  1
  Li  Li63  1  0.72936133  0.63182859  0.99753862  1
  Li  Li64  1  0.20812201  0.40743926  0.71009097  1
  Li  Li65  1  0.29187799  0.59256074  0.21009097  1
  Li  Li66  1  0.79187799  0.90743926  0.28990903  1
  Li  Li67  1  0.70812201  0.09256074  0.78990903  1
  Li  Li68  1  0.79187799  0.59256074  0.28990903  1
  Li  Li69  1  0.70812201  0.40743926  0.78990903  1
  Li  Li70  1  0.20812201  0.09256074  0.71009097  1
  Li  Li71  1  0.29187799  0.90743926  0.21009097  1
