# generated using pymatgen
data_LiF
_symmetry_space_group_name_H-M   'P 1'
_cell_length_a   5.42401283
_cell_length_b   9.37709446
_cell_length_c   13.04663800
_cell_angle_alpha   90.00000000
_cell_angle_beta   90.00000000
_cell_angle_gamma   90.00000000
_symmetry_Int_Tables_number   1
_chemical_formula_structural   LiF
_chemical_formula_sum   'Li24 F24'
_cell_volume   663.57132685
_cell_formula_units_Z   24
loop_
 _symmetry_equiv_pos_site_id
 _symmetry_equiv_pos_as_xyz
  1  'x, y, z'
loop_
 _atom_site_type_symbol
 _atom_site_label
 _atom_site_symmetry_multiplicity
 _atom_site_fract_x
 _atom_site_fract_y
 _atom_site_fract_z
 _atom_site_occupancy
  F  F0  1  0.00000000  0.00000000  0.50000000  1
  F  F1  1  0.50000000  0.00000000  0.00000000  1
  F  F2  1  0.00000000  0.50000000  0.50000000  1
  F  F3  1  0.50000000  0.50000000  0.00000000  1
  F  F4  1  0.76455887  0.64455324  0.02234488  1
  F  F5  1  0.73544113  0.35544676  0.52234488  1
  F  F6  1  0.23544113  0.14455324  0.97765512  1
  F  F7  1  0.26455887  0.85544676  0.47765512  1
  F  F8  1  0.23544113  0.35544676  0.97765512  1
  F  F9  1  0.26455887  0.64455324  0.47765512  1
  F  F10  1  0.76455887  0.85544676  0.02234488  1
  F  F11  1  0.73544113  0.14455324  0.52234488  1
  F  F12  1  0.27346546  0.20810949  0.44518863  1
  F  F13  1  0.22653454  0.79189051  0.94518863  1
  F  F14  1  0.72653454  0.70810949  0.55481137  1
  F  F15  1  0.77346546  0.29189051  0.05481137  1
  F  F16  1  0.72653454  0.79189051  0.55481137  1
  F  F17  1  0.77346546  0.20810949  0.05481137  1
  F  F18  1  0.27346546  0.29189051  0.44518863  1
  F  F19  1  0.22653454  0.70810949  0.94518863  1
  F  F20  1  0.69934299  0.25000000  0.44402764  1
  F  F21  1  0.80065701  0.75000000  0.94402764  1
  F  F22  1  0.30065701  0.75000000  0.55597236  1
  F  F23  1  0.19934299  0.25000000  0.05597236  1
  Li  Li24  1  0.13722047  0.03806483  0.06087689  1
  Li  Li25  1  0.36277953  -0.03806483  0.56087689  1
  Li  Li26  1  -0.13722047  0.53806483  -0.06087689  1
  Li  Li27  1  0.63722047  0.46193517  0.43912311  1
  Li  Li28  1  -0.13722047  -0.03806483  -0.06087689  1
  Li  Li29  1  0.63722047  0.03806483  0.43912311  1
  Li  Li30  1  0.13722047  0.46193517  0.06087689  1
  Li  Li31  1  0.36277953  0.53806483  0.56087689  1
  Li  Li32  1  0.99614529  0.90939397  0.06924289  1
  Li  Li33  1  0.50385471  0.09060603  0.56924289  1
  Li  Li34  1  0.00385471  0.40939397  0.93075711  1
  Li  Li35  1  0.49614529  0.59060603  0.43075711  1
  Li  Li36  1  0.00385471  0.09060603  0.93075711  1
  Li  Li37  1  0.49614529  0.90939397  0.43075711  1
  Li  Li38  1  0.99614529  0.59060603  0.06924289  1
  Li  Li39  1  0.50385471  0.40939397  0.56924289  1
  Li  Li40  1  0.77613302  0.40204319  0.15730050  1
  Li  Li41  1  0.72386698  0.59795681  0.65730050  1
  Li  Li42  1  0.22386698  0.90204319  0.84269950  1
  Li  Li43  1  0.27613302  0.09795681  0.34269950  1
  Li  Li44  1  0.22386698  0.59795681  0.84269950  1
  Li  Li45  1  0.27613302  0.40204319  0.34269950  1
  Li  Li46  1  0.77613302  0.09795681  0.15730050  1
  Li  Li47  1  0.72386698  0.90204319  0.65730050  1
