# generated using pymatgen
data_LiF
_symmetry_space_group_name_H-M   'P 1'
_cell_length_a   6.82128947
_cell_length_b   5.27159312
_cell_length_c   7.66495854
_cell_angle_alpha   90.00000000
_cell_angle_beta   90.00000000
_cell_angle_gamma   90.00000000
_symmetry_Int_Tables_number   1
_chemical_formula_structural   LiF
_chemical_formula_sum   'Li16 F16'
_cell_volume   275.62472460
_cell_formula_units_Z   16
loop_
 _symmetry_equiv_pos_site_id
 _symmetry_equiv_pos_as_xyz
  1  'x, y, z'
loop_
 _atom_site_type_symbol
 _atom_site_label
 _atom_site_symmetry_multiplicity
 _atom_site_fract_x
 _atom_site_fract_y
 _atom_site_fract_z
 _atom_site_occupancy
  F  F0  1  0.93651949  0.88612491  0.11738918  1
  F  F1  1  -0.93651949  -0.88612491  0.11738918  1
  F  F2  1  -0.43651949  1.38612491  0.38261082  1
  F  F3  1  1.43651949  -0.38612491  0.38261082  1
  F  F4  1  -0.93651949  -0.88612491  -0.11738918  1
  F  F5  1  0.93651949  0.88612491  -0.11738918  1
  F  F6  1  1.43651949  -0.38612491  0.61738918  1
  F  F7  1  -0.43651949  1.38612491  0.61738918  1
  F  F8  1  0.00000000  0.00000000  0.88341568  1
  F  F9  1  0.50000000  0.50000000  0.61658432  1
  F  F10  1  0.00000000  0.00000000  0.11658432  1
  F  F11  1  0.50000000  0.50000000  0.38341568  1
  F  F12  1  0.00000000  0.00000000  0.50000000  1
  F  F13  1  0.50000000  0.50000000  0.00000000  1
  F  F14  1  0.00000000  0.50000000  0.50000000  1
  F  F15  1  0.50000000  0.00000000  0.00000000  1
  Li  Li16  1  0.76213429  0.95399352  0.16040748  1
  Li  Li17  1  0.23786571  0.04600648  0.16040748  1
  Li  Li18  1  0.73786571  0.45399352  0.33959252  1
  Li  Li19  1  0.26213429  0.54600648  0.33959252  1
  Li  Li20  1  0.23786571  0.04600648  0.83959252  1
  Li  Li21  1  0.76213429  0.95399352  0.83959252  1
  Li  Li22  1  0.26213429  0.54600648  0.66040748  1
  Li  Li23  1  0.73786571  0.45399352  0.66040748  1
  Li  Li24  1  0.40243843  0.33016099  0.00000000  1
  Li  Li25  1  0.59756157  0.66983901  0.00000000  1
  Li  Li26  1  0.09756157  0.83016099  0.50000000  1
  Li  Li27  1  0.90243843  0.16983901  0.50000000  1
  Li  Li28  1  0.24881296  0.50406637  0.00000000  1
  Li  Li29  1  0.75118704  0.49593363  0.00000000  1
  Li  Li30  1  0.25118704  0.00406637  0.50000000  1
  Li  Li31  1  0.74881296  0.99593363  0.50000000  1
