# generated using pymatgen
data_LiF
_symmetry_space_group_name_H-M   'P 1'
_cell_length_a   10.77364127
_cell_length_b   10.77364127
_cell_length_c   20.37585907
_cell_angle_alpha   90.00000000
_cell_angle_beta   90.00000000
_cell_angle_gamma   120.00000000
_symmetry_Int_Tables_number   1
_chemical_formula_structural   LiF
_chemical_formula_sum   'Li70 F70'
_cell_volume   2048.19632093
_cell_formula_units_Z   70
loop_
 _symmetry_equiv_pos_site_id
 _symmetry_equiv_pos_as_xyz
  1  'x, y, z'
loop_
 _atom_site_type_symbol
 _atom_site_label
 _atom_site_symmetry_multiplicity
 _atom_site_fract_x
 _atom_site_fract_y
 _atom_site_fract_z
 _atom_site_occupancy
  F  F0  1  0.93274081  0.72444676  0.73704350  1
  F  F1  1  0.27555324  0.20829404  0.73704350  1
  F  F2  1  0.79170596  0.06725919  0.73704350  1
  F  F3  1  0.27555324  0.06725919  0.26295650  1
  F  F4  1  0.79170596  0.72444676  0.26295650  1
  F  F5  1  0.93274081  0.20829404  0.26295650  1
  F  F6  1  0.33333333  0.66666667  0.39702241  1
  F  F7  1  0.33333333  0.66666667  0.60297759  1
  F  F8  1  0.48661677  0.73695057  0.70205323  1
  F  F9  1  0.26304943  0.74966620  0.70205323  1
  F  F10  1  0.25033380  0.51338323  0.70205323  1
  F  F11  1  0.26304943  0.51338323  0.29794677  1
  F  F12  1  0.25033380  0.73695057  0.29794677  1
  F  F13  1  0.48661677  0.74966620  0.29794677  1
  F  F14  1  0.62500483  0.86237305  0.54824530  1
  F  F15  1  0.13762695  0.76263178  0.54824530  1
  F  F16  1  0.23736822  0.37499517  0.54824530  1
  F  F17  1  0.13762695  0.37499517  0.45175470  1
  F  F18  1  0.23736822  0.86237305  0.45175470  1
  F  F19  1  0.62500483  0.76263178  0.45175470  1
  F  F20  1  0.29449289  0.44614375  0.90276030  1
  F  F21  1  0.55385625  0.84834914  0.90276030  1
  F  F22  1  0.15165086  0.70550711  0.90276030  1
  F  F23  1  0.55385625  0.70550711  0.09723970  1
  F  F24  1  0.15165086  0.44614375  0.09723970  1
  F  F25  1  0.29449289  0.84834914  0.09723970  1
  F  F26  1  0.64457320  0.48578378  0.54149196  1
  F  F27  1  0.51421622  0.15878942  0.54149196  1
  F  F28  1  0.84121058  0.35542680  0.54149196  1
  F  F29  1  0.51421622  0.35542680  0.45850804  1
  F  F30  1  0.84121058  0.48578378  0.45850804  1
  F  F31  1  0.64457320  0.15878942  0.45850804  1
  F  F32  1  0.66246071  0.60538017  0.59586418  1
  F  F33  1  0.39461983  0.05708055  0.59586418  1
  F  F34  1  0.94291945  0.33753929  0.59586418  1
  F  F35  1  0.39461983  0.33753929  0.40413582  1
  F  F36  1  0.94291945  0.60538017  0.40413582  1
  F  F37  1  0.66246071  0.05708055  0.40413582  1
  F  F38  1  0.00000000  0.00000000  0.00000000  1
  F  F39  1  0.01782408  0.43639666  0.99996221  1
  F  F40  1  0.56360334  0.58142742  0.99996221  1
  F  F41  1  0.41857258  0.98217592  0.99996221  1
  F  F42  1  0.56360334  0.98217592  0.00003779  1
  F  F43  1  0.41857258  0.43639666  0.00003779  1
  F  F44  1  0.01782408  0.58142742  0.00003779  1
  F  F45  1  0.66666667  0.33333333  0.09543425  1
  F  F46  1  0.66666667  0.33333333  0.90456575  1
  F  F47  1  0.33333333  0.66666667  0.35666705  1
  F  F48  1  0.33333333  0.66666667  0.64333295  1
  F  F49  1  0.04636321  0.04210780  0.55464768  1
  F  F50  1  0.95789220  0.00425541  0.55464768  1
  F  F51  1  0.99574459  0.95363679  0.55464768  1
  F  F52  1  0.95789220  0.95363679  0.44535232  1
  F  F53  1  0.99574459  0.04210780  0.44535232  1
  F  F54  1  0.04636321  0.00425541  0.44535232  1
  F  F55  1  0.91272299  0.59476835  0.48290471  1
  F  F56  1  0.40523165  0.31795464  0.48290471  1
  F  F57  1  0.68204536  0.08727701  0.48290471  1
  F  F58  1  0.40523165  0.08727701  0.51709529  1
  F  F59  1  0.68204536  0.59476835  0.51709529  1
  F  F60  1  0.91272299  0.31795464  0.51709529  1
  F  F61  1  0.73714451  0.43791277  0.29722096  1
  F  F62  1  0.56208723  0.29923174  0.29722096  1
  F  F63  1  0.70076826  0.26285549  0.29722096  1
  F  F64  1  0.56208723  0.26285549  0.70277904  1
  F  F65  1  0.70076826  0.43791277  0.70277904  1
  F  F66  1  0.73714451  0.29923174  0.70277904  1
  F  F67  1  0.55565515  0.44434485  0.50000000  1
  F  F68  1  0.55565515  0.11131029  0.50000000  1
  F  F69  1  0.88868971  0.44434485  0.50000000  1
  Li  Li70  1  0.66666667  0.33333333  0.50000000  1
  Li  Li71  1  0.67011701  0.11627509  0.58831791  1
  Li  Li72  1  -0.11627509  0.55384192  0.58831791  1
  Li  Li73  1  -0.55384192  -0.67011701  0.58831791  1
  Li  Li74  1  -0.11627509  -0.67011701  -0.58831791  1
  Li  Li75  1  -0.55384192  0.11627509  -0.58831791  1
  Li  Li76  1  0.67011701  0.55384192  -0.58831791  1
  Li  Li77  1  0.00000000  0.00000000  0.50000000  1
  Li  Li78  1  0.33333333  0.66666667  0.00000000  1
  Li  Li79  1  0.59144171  0.54414757  0.29421792  1
  Li  Li80  1  0.45585243  0.04729414  0.29421792  1
  Li  Li81  1  0.95270586  0.40855829  0.29421792  1
  Li  Li82  1  0.45585243  0.40855829  0.70578208  1
  Li  Li83  1  0.95270586  0.54414757  0.70578208  1
  Li  Li84  1  0.59144171  0.04729414  0.70578208  1
  Li  Li85  1  0.40467449  0.64635671  0.34573681  1
  Li  Li86  1  0.35364329  0.75831777  0.34573681  1
  Li  Li87  1  0.24168223  0.59532551  0.34573681  1
  Li  Li88  1  0.35364329  0.59532551  0.65426319  1
  Li  Li89  1  0.24168223  0.64635671  0.65426319  1
  Li  Li90  1  0.40467449  0.75831777  0.65426319  1
  Li  Li91  1  0.48667339  0.88592141  0.31479699  1
  Li  Li92  1  0.11407859  0.60075199  0.31479699  1
  Li  Li93  1  0.39924801  0.51332661  0.31479699  1
  Li  Li94  1  0.11407859  0.51332661  0.68520301  1
  Li  Li95  1  0.39924801  0.88592141  0.68520301  1
  Li  Li96  1  0.48667339  0.60075199  0.68520301  1
  Li  Li97  1  0.33333333  0.66666667  0.50000000  1
  Li  Li98  1  0.29166897  0.46818385  0.36149765  1
  Li  Li99  1  0.53181615  0.82348513  0.36149765  1
  Li  Li100  1  0.17651487  0.70833103  0.36149765  1
  Li  Li101  1  0.53181615  0.70833103  0.63850235  1
  Li  Li102  1  0.17651487  0.46818385  0.63850235  1
  Li  Li103  1  0.29166897  0.82348513  0.63850235  1
  Li  Li104  1  0.66666667  0.33333333  0.23959635  1
  Li  Li105  1  0.66666667  0.33333333  0.76040365  1
  Li  Li106  1  0.39999585  0.99554025  0.65870786  1
  Li  Li107  1  0.00445975  0.40445561  0.65870786  1
  Li  Li108  1  0.59554439  0.60000415  0.65870786  1
  Li  Li109  1  0.00445975  0.60000415  0.34129214  1
  Li  Li110  1  0.59554439  0.99554025  0.34129214  1
  Li  Li111  1  0.39999585  0.40445561  0.34129214  1
  Li  Li112  1  0.00000000  0.00000000  0.75523778  1
  Li  Li113  1  0.00000000  0.00000000  0.24476222  1
  Li  Li114  1  0.33333333  0.66666667  0.73356285  1
  Li  Li115  1  0.33333333  0.66666667  0.26643715  1
  Li  Li116  1  0.11700803  0.57363300  0.75789808  1
  Li  Li117  1  0.42636700  0.54337503  0.75789808  1
  Li  Li118  1  0.45662497  0.88299197  0.75789808  1
  Li  Li119  1  0.42636700  0.88299197  0.24210192  1
  Li  Li120  1  0.45662497  0.57363300  0.24210192  1
  Li  Li121  1  0.11700803  0.54337503  0.24210192  1
  Li  Li122  1  0.45907918  0.38755734  0.10334072  1
  Li  Li123  1  0.61244266  0.07152183  0.10334072  1
  Li  Li124  1  0.92847817  0.54092082  0.10334072  1
  Li  Li125  1  0.61244266  0.54092082  0.89665928  1
  Li  Li126  1  0.92847817  0.38755734  0.89665928  1
  Li  Li127  1  0.45907918  0.07152183  0.89665928  1
  Li  Li128  1  0.78164025  0.73444453  0.95284241  1
  Li  Li129  1  0.26555547  0.04719572  0.95284241  1
  Li  Li130  1  0.95280428  0.21835975  0.95284241  1
  Li  Li131  1  0.26555547  0.21835975  0.04715759  1
  Li  Li132  1  0.95280428  0.73444453  0.04715759  1
  Li  Li133  1  0.78164025  0.04719572  0.04715759  1
  Li  Li134  1  0.31861223  0.33697385  0.67085535  1
  Li  Li135  1  0.66302615  0.98163838  0.67085535  1
  Li  Li136  1  0.01836162  0.68138777  0.67085535  1
  Li  Li137  1  0.66302615  0.68138777  0.32914465  1
  Li  Li138  1  0.01836162  0.33697385  0.32914465  1
  Li  Li139  1  0.31861223  0.98163838  0.32914465  1
