# generated using pymatgen
data_LiF
_symmetry_space_group_name_H-M   'P 1'
_cell_length_a   9.72435215
_cell_length_b   7.35289217
_cell_length_c   4.56504279
_cell_angle_alpha   90.00000000
_cell_angle_beta   90.00000000
_cell_angle_gamma   90.00000000
_symmetry_Int_Tables_number   1
_chemical_formula_structural   LiF
_chemical_formula_sum   'Li16 F16'
_cell_volume   326.41020434
_cell_formula_units_Z   16
loop_
 _symmetry_equiv_pos_site_id
 _symmetry_equiv_pos_as_xyz
  1  'x, y, z'
loop_
 _atom_site_type_symbol
 _atom_site_label
 _atom_site_symmetry_multiplicity
 _atom_site_fract_x
 _atom_site_fract_y
 _atom_site_fract_z
 _atom_site_occupancy
  F  F0  1  0.17453092  0.66231984  0.11398962  1
  F  F1  1  0.32546908  0.33768016  0.61398962  1
  F  F2  1  0.82546908  0.16231984  0.88601038  1
  F  F3  1  0.67453092  0.83768016  0.38601038  1
  F  F4  1  0.82546908  0.33768016  0.88601038  1
  F  F5  1  0.67453092  0.66231984  0.38601038  1
  F  F6  1  0.17453092  0.83768016  0.11398962  1
  F  F7  1  0.32546908  0.16231984  0.61398962  1
  F  F8  1  0.73600257  0.88450505  0.72290132  1
  F  F9  1  0.76399743  0.11549495  0.22290132  1
  F  F10  1  0.26399743  0.38450505  0.27709868  1
  F  F11  1  0.23600257  0.61549495  0.77709868  1
  F  F12  1  0.26399743  0.11549495  0.27709868  1
  F  F13  1  0.23600257  0.88450505  0.77709868  1
  F  F14  1  0.73600257  0.61549495  0.72290132  1
  F  F15  1  0.76399743  0.38450505  0.22290132  1
  Li  Li16  1  0.88285884  0.59592485  0.19381607  1
  Li  Li17  1  -0.38285884  -0.59592485  0.69381607  1
  Li  Li18  1  -0.88285884  1.09592485  -0.19381607  1
  Li  Li19  1  1.38285884  -0.09592485  0.30618393  1
  Li  Li20  1  -0.88285884  -0.59592485  -0.19381607  1
  Li  Li21  1  1.38285884  0.59592485  0.30618393  1
  Li  Li22  1  0.88285884  -0.09592485  0.19381607  1
  Li  Li23  1  -0.38285884  1.09592485  0.69381607  1
  Li  Li24  1  0.64415564  0.45267366  0.15451462  1
  Li  Li25  1  0.85584436  0.54732634  0.65451462  1
  Li  Li26  1  0.35584436  0.95267366  0.84548538  1
  Li  Li27  1  0.14415564  0.04732634  0.34548538  1
  Li  Li28  1  0.35584436  0.54732634  0.84548538  1
  Li  Li29  1  0.14415564  0.45267366  0.34548538  1
  Li  Li30  1  0.64415564  0.04732634  0.15451462  1
  Li  Li31  1  0.85584436  0.95267366  0.65451462  1
