# generated using pymatgen
data_LiF
_symmetry_space_group_name_H-M   'P 1'
_cell_length_a   5.74293536
_cell_length_b   9.45879682
_cell_length_c   11.61304450
_cell_angle_alpha   90.00000000
_cell_angle_beta   90.00000000
_cell_angle_gamma   90.00000000
_symmetry_Int_Tables_number   1
_chemical_formula_structural   LiF
_chemical_formula_sum   'Li28 F28'
_cell_volume   630.83519404
_cell_formula_units_Z   28
loop_
 _symmetry_equiv_pos_site_id
 _symmetry_equiv_pos_as_xyz
  1  'x, y, z'
loop_
 _atom_site_type_symbol
 _atom_site_label
 _atom_site_symmetry_multiplicity
 _atom_site_fract_x
 _atom_site_fract_y
 _atom_site_fract_z
 _atom_site_occupancy
  F  F0  1  0.00000000  0.50000000  0.50000000  1
  F  F1  1  0.50000000  0.00000000  0.50000000  1
  F  F2  1  0.66062229  0.34653614  -0.00000000  1
  F  F3  1  0.33937771  0.65346386  0.00000000  1
  F  F4  1  0.83937771  0.84653614  0.00000000  1
  F  F5  1  0.16062229  0.15346386  0.00000000  1
  F  F6  1  0.86804379  0.51462140  0.00000000  1
  F  F7  1  0.13195621  0.48537860  0.00000000  1
  F  F8  1  0.63195621  0.01462140  0.00000000  1
  F  F9  1  0.36804379  0.98537860  0.00000000  1
  F  F10  1  0.60764926  0.61897141  0.09902658  1
  F  F11  1  -0.60764926  -0.61897141  0.09902658  1
  F  F12  1  -0.10764926  1.11897141  -0.09902658  1
  F  F13  1  1.10764926  -0.11897141  -0.09902658  1
  F  F14  1  -0.60764926  -0.61897141  -0.09902658  1
  F  F15  1  0.60764926  0.61897141  -0.09902658  1
  F  F16  1  1.10764926  -0.11897141  0.09902658  1
  F  F17  1  -0.10764926  1.11897141  0.09902658  1
  F  F18  1  0.20892255  0.63606776  0.50000000  1
  F  F19  1  0.79107745  0.36393224  0.50000000  1
  F  F20  1  0.29107745  0.13606776  0.50000000  1
  F  F21  1  0.70892255  0.86393224  0.50000000  1
  F  F22  1  0.81573274  0.22959137  0.50000000  1
  F  F23  1  0.18426726  0.77040863  0.50000000  1
  F  F24  1  0.68426726  0.72959137  0.50000000  1
  F  F25  1  0.31573274  0.27040863  0.50000000  1
  F  F26  1  0.00000000  0.00000000  0.50000000  1
  F  F27  1  0.50000000  0.50000000  0.50000000  1
  Li  Li28  1  0.28255203  0.56103973  0.61365991  1
  Li  Li29  1  0.71744797  0.43896027  0.61365991  1
  Li  Li30  1  0.21744797  0.06103973  0.38634009  1
  Li  Li31  1  0.78255203  0.93896027  0.38634009  1
  Li  Li32  1  0.71744797  0.43896027  0.38634009  1
  Li  Li33  1  0.28255203  0.56103973  0.38634009  1
  Li  Li34  1  0.78255203  0.93896027  0.61365991  1
  Li  Li35  1  0.21744797  0.06103973  0.61365991  1
  Li  Li36  1  0.41463233  0.40611522  0.50000000  1
  Li  Li37  1  0.58536767  0.59388478  0.50000000  1
  Li  Li38  1  0.08536767  0.90611522  0.50000000  1
  Li  Li39  1  0.91463233  0.09388478  0.50000000  1
  Li  Li40  1  0.67373901  0.26372199  0.68779564  1
  Li  Li41  1  0.32626099  0.73627801  0.68779564  1
  Li  Li42  1  0.82626099  0.76372199  0.31220436  1
  Li  Li43  1  0.17373901  0.23627801  0.31220436  1
  Li  Li44  1  0.32626099  0.73627801  0.31220436  1
  Li  Li45  1  0.67373901  0.26372199  0.31220436  1
  Li  Li46  1  0.17373901  0.23627801  0.68779564  1
  Li  Li47  1  0.82626099  0.76372199  0.68779564  1
  Li  Li48  1  0.64167620  0.66099994  0.00000000  1
  Li  Li49  1  0.35832380  0.33900006  0.00000000  1
  Li  Li50  1  0.85832380  0.16099994  0.00000000  1
  Li  Li51  1  0.14167620  0.83900006  0.00000000  1
  Li  Li52  1  0.00000000  0.50000000  0.30383748  1
  Li  Li53  1  0.50000000  0.00000000  0.69616252  1
  Li  Li54  1  0.00000000  0.50000000  0.69616252  1
  Li  Li55  1  0.50000000  0.00000000  0.30383748  1
