# generated using pymatgen
data_Li2Y2P3Se2
_symmetry_space_group_name_H-M   'P 1'
_cell_length_a   4.86482656
_cell_length_b   5.17792908
_cell_length_c   7.11667185
_cell_angle_alpha   95.00037613
_cell_angle_beta   100.88977965
_cell_angle_gamma   110.08452354
_symmetry_Int_Tables_number   1
_chemical_formula_structural   Li2Y2P3Se2
_chemical_formula_sum   'Li2 Y2 P3 Se2'
_cell_volume   163.07137889
_cell_formula_units_Z   1
loop_
 _symmetry_equiv_pos_site_id
 _symmetry_equiv_pos_as_xyz
  1  'x, y, z'
loop_
 _atom_site_type_symbol
 _atom_site_label
 _atom_site_symmetry_multiplicity
 _atom_site_fract_x
 _atom_site_fract_y
 _atom_site_fract_z
 _atom_site_occupancy
  Se  Se0  1  0.12500000  0.12500000  0.12500000  1
  Se  Se1  1  0.50000000  0.50000000  0.50000000  1
  Y  Y2  1  0.25000000  0.25000000  0.25000000  1
  Y  Y3  1  0.75000000  0.75000000  0.75000000  1
  P  P4  1  0.87622636  0.56989003  0.96209464  1
  P  P5  1  0.30726920  0.55428100  0.57201945  1
  P  P6  1  0.50423492  0.84827279  0.95809707  1
  Li  Li7  1  0.77701119  0.83461002  0.73547426  1
  Li  Li8  1  0.29908750  0.29005035  0.50645629  1
