# generated using pymatgen
data_LiF
_symmetry_space_group_name_H-M   'P 1'
_cell_length_a   8.24799606
_cell_length_b   8.24799606
_cell_length_c   5.79425516
_cell_angle_alpha   90.00000000
_cell_angle_beta   90.00000000
_cell_angle_gamma   120.00000000
_symmetry_Int_Tables_number   1
_chemical_formula_structural   LiF
_chemical_formula_sum   'Li14 F14'
_cell_volume   341.36983151
_cell_formula_units_Z   14
loop_
 _symmetry_equiv_pos_site_id
 _symmetry_equiv_pos_as_xyz
  1  'x, y, z'
loop_
 _atom_site_type_symbol
 _atom_site_label
 _atom_site_symmetry_multiplicity
 _atom_site_fract_x
 _atom_site_fract_y
 _atom_site_fract_z
 _atom_site_occupancy
  F  F0  1  0.50000000  0.00000000  0.00000000  1
  F  F1  1  0.00000000  0.50000000  0.00000000  1
  F  F2  1  0.50000000  0.50000000  0.00000000  1
  F  F3  1  0.50000000  0.00000000  0.50000000  1
  F  F4  1  0.00000000  0.50000000  0.50000000  1
  F  F5  1  0.50000000  0.50000000  0.50000000  1
  F  F6  1  0.00000000  0.00000000  0.10504608  1
  F  F7  1  0.00000000  0.00000000  0.60504608  1
  F  F8  1  0.00000000  0.00000000  0.89495392  1
  F  F9  1  0.00000000  0.00000000  0.39495392  1
  F  F10  1  0.33333333  0.66666667  0.95265756  1
  F  F11  1  0.66666667  0.33333333  0.45265756  1
  F  F12  1  0.66666667  0.33333333  0.04734244  1
  F  F13  1  0.33333333  0.66666667  0.54734244  1
  Li  Li14  1  0.78031423  0.96358365  0.08921092  1
  Li  Li15  1  -0.96358365  -0.18326941  0.08921092  1
  Li  Li16  1  0.18326941  -0.78031423  0.08921092  1
  Li  Li17  1  -0.78031423  -0.96358365  0.58921092  1
  Li  Li18  1  0.96358365  0.18326941  0.58921092  1
  Li  Li19  1  -0.18326941  0.78031423  0.58921092  1
  Li  Li20  1  -0.78031423  -0.96358365  -0.08921092  1
  Li  Li21  1  0.96358365  0.18326941  -0.08921092  1
  Li  Li22  1  -0.18326941  0.78031423  -0.08921092  1
  Li  Li23  1  0.78031423  0.96358365  0.41078908  1
  Li  Li24  1  -0.96358365  -0.18326941  0.41078908  1
  Li  Li25  1  0.18326941  -0.78031423  0.41078908  1
  Li  Li26  1  0.33333333  0.66666667  0.25000000  1
  Li  Li27  1  0.66666667  0.33333333  0.75000000  1
