# generated using pymatgen
data_Li2Si4Te3F12
_symmetry_space_group_name_H-M   'P 1'
_cell_length_a   10.18257373
_cell_length_b   10.18257373
_cell_length_c   20.00046558
_cell_angle_alpha   90.00000000
_cell_angle_beta   90.00000000
_cell_angle_gamma   120.00000000
_symmetry_Int_Tables_number   1
_chemical_formula_structural   Li2Si4Te3F12
_chemical_formula_sum   'Li8 Si16 Te12 F48'
_cell_volume   1795.91535716
_cell_formula_units_Z   4
loop_
 _symmetry_equiv_pos_site_id
 _symmetry_equiv_pos_as_xyz
  1  'x, y, z'
loop_
 _atom_site_type_symbol
 _atom_site_label
 _atom_site_symmetry_multiplicity
 _atom_site_fract_x
 _atom_site_fract_y
 _atom_site_fract_z
 _atom_site_occupancy
  F  F0  1  0.89385983  0.91465322  0.70504835  1
  F  F1  1  0.08534678  0.97920661  0.70504835  1
  F  F2  1  0.02079339  0.10614017  0.70504835  1
  F  F3  1  0.10614017  0.08534678  0.20504835  1
  F  F4  1  0.91465322  0.02079339  0.20504835  1
  F  F5  1  0.97920661  0.89385983  0.20504835  1
  F  F6  1  0.10614017  0.08534678  0.29495165  1
  F  F7  1  0.91465322  0.02079339  0.29495165  1
  F  F8  1  0.97920661  0.89385983  0.29495165  1
  F  F9  1  0.89385983  0.91465322  0.79495165  1
  F  F10  1  0.08534678  0.97920661  0.79495165  1
  F  F11  1  0.02079339  0.10614017  0.79495165  1
  F  F12  1  0.43420422  0.96345324  0.31175691  1
  F  F13  1  0.03654676  0.47075098  0.31175691  1
  F  F14  1  0.52924902  0.56579578  0.31175691  1
  F  F15  1  0.56579578  0.03654676  0.81175691  1
  F  F16  1  0.96345324  0.52924902  0.81175691  1
  F  F17  1  0.47075098  0.43420422  0.81175691  1
  F  F18  1  0.56579578  0.03654676  0.68824309  1
  F  F19  1  0.96345324  0.52924902  0.68824309  1
  F  F20  1  0.47075098  0.43420422  0.68824309  1
  F  F21  1  0.43420422  0.96345324  0.18824309  1
  F  F22  1  0.03654676  0.47075098  0.18824309  1
  F  F23  1  0.52924902  0.56579578  0.18824309  1
  F  F24  1  0.96119823  0.13443058  0.62196665  1
  F  F25  1  0.86556942  0.82676766  0.62196665  1
  F  F26  1  0.17323234  0.03880177  0.62196665  1
  F  F27  1  0.03880177  0.86556942  0.12196665  1
  F  F28  1  0.13443058  0.17323234  0.12196665  1
  F  F29  1  0.82676766  0.96119823  0.12196665  1
  F  F30  1  0.03880177  0.86556942  0.37803335  1
  F  F31  1  0.13443058  0.17323234  0.37803335  1
  F  F32  1  0.82676766  0.96119823  0.37803335  1
  F  F33  1  0.96119823  0.13443058  0.87803335  1
  F  F34  1  0.86556942  0.82676766  0.87803335  1
  F  F35  1  0.17323234  0.03880177  0.87803335  1
  F  F36  1  0.55981296  0.98662981  0.16740703  1
  F  F37  1  0.01337019  0.57318315  0.16740703  1
  F  F38  1  0.42681685  0.44018704  0.16740703  1
  F  F39  1  0.44018704  0.01337019  0.66740703  1
  F  F40  1  0.98662981  0.42681685  0.66740703  1
  F  F41  1  0.57318315  0.55981296  0.66740703  1
  F  F42  1  0.44018704  0.01337019  0.83259297  1
  F  F43  1  0.98662981  0.42681685  0.83259297  1
  F  F44  1  0.57318315  0.55981296  0.83259297  1
  F  F45  1  0.55981296  0.98662981  0.33259297  1
  F  F46  1  0.01337019  0.57318315  0.33259297  1
  F  F47  1  0.42681685  0.44018704  0.33259297  1
  Li  Li48  1  0.07394368  0.19942380  0.25000000  1
  Li  Li49  1  0.80057620  0.87451989  0.25000000  1
  Li  Li50  1  0.12548011  0.92605632  0.25000000  1
  Li  Li51  1  0.92605632  0.80057620  0.75000000  1
  Li  Li52  1  0.19942380  0.12548011  0.75000000  1
  Li  Li53  1  0.87451989  0.07394368  0.75000000  1
  Li  Li54  1  0.00000000  0.00000000  0.00000000  1
  Li  Li55  1  0.00000000  0.00000000  0.50000000  1
  Si  Si56  1  0.69755171  0.44698841  0.68155476  1
  Si  Si57  1  -0.44698841  0.25056329  0.68155476  1
  Si  Si58  1  -0.25056329  -0.69755171  0.68155476  1
  Si  Si59  1  -0.69755171  -0.44698841  1.18155476  1
  Si  Si60  1  0.44698841  -0.25056329  1.18155476  1
  Si  Si61  1  0.25056329  0.69755171  1.18155476  1
  Si  Si62  1  -0.69755171  -0.44698841  -0.68155476  1
  Si  Si63  1  0.44698841  -0.25056329  -0.68155476  1
  Si  Si64  1  0.25056329  0.69755171  -0.68155476  1
  Si  Si65  1  0.69755171  0.44698841  -0.18155476  1
  Si  Si66  1  -0.44698841  0.25056329  -0.18155476  1
  Si  Si67  1  -0.25056329  -0.69755171  -0.18155476  1
  Si  Si68  1  0.00000000  0.00000000  0.25000000  1
  Si  Si69  1  0.00000000  0.00000000  0.75000000  1
  Si  Si70  1  0.33333333  0.66666667  0.25000000  1
  Si  Si71  1  0.66666667  0.33333333  0.75000000  1
  Te  Te72  1  0.29521459  0.47590325  0.61949856  1
  Te  Te73  1  0.52409675  0.81931134  0.61949856  1
  Te  Te74  1  0.18068866  0.70478541  0.61949856  1
  Te  Te75  1  0.70478541  0.52409675  0.11949856  1
  Te  Te76  1  0.47590325  0.18068866  0.11949856  1
  Te  Te77  1  0.81931134  0.29521459  0.11949856  1
  Te  Te78  1  0.70478541  0.52409675  0.38050144  1
  Te  Te79  1  0.47590325  0.18068866  0.38050144  1
  Te  Te80  1  0.81931134  0.29521459  0.38050144  1
  Te  Te81  1  0.29521459  0.47590325  0.88050144  1
  Te  Te82  1  0.52409675  0.81931134  0.88050144  1
  Te  Te83  1  0.18068866  0.70478541  0.88050144  1
