# generated using pymatgen
data_LiF
_symmetry_space_group_name_H-M   'P 1'
_cell_length_a   8.54451113
_cell_length_b   8.54451113
_cell_length_c   16.14132712
_cell_angle_alpha   90.00000000
_cell_angle_beta   90.00000000
_cell_angle_gamma   120.00000000
_symmetry_Int_Tables_number   1
_chemical_formula_structural   LiF
_chemical_formula_sum   'Li36 F36'
_cell_volume   1020.57355360
_cell_formula_units_Z   36
loop_
 _symmetry_equiv_pos_site_id
 _symmetry_equiv_pos_as_xyz
  1  'x, y, z'
loop_
 _atom_site_type_symbol
 _atom_site_label
 _atom_site_symmetry_multiplicity
 _atom_site_fract_x
 _atom_site_fract_y
 _atom_site_fract_z
 _atom_site_occupancy
  F  F0  1  0.59890579  0.11937196  0.13474915  1
  F  F1  1  -0.11937196  0.47953383  0.13474915  1
  F  F2  1  -0.47953383  -0.59890579  0.13474915  1
  F  F3  1  -0.59890579  -0.11937196  0.63474915  1
  F  F4  1  0.11937196  -0.47953383  0.63474915  1
  F  F5  1  0.47953383  0.59890579  0.63474915  1
  F  F6  1  -0.59890579  -0.11937196  -0.13474915  1
  F  F7  1  0.11937196  -0.47953383  -0.13474915  1
  F  F8  1  0.47953383  0.59890579  -0.13474915  1
  F  F9  1  0.59890579  0.11937196  0.36525085  1
  F  F10  1  -0.11937196  0.47953383  0.36525085  1
  F  F11  1  -0.47953383  -0.59890579  0.36525085  1
  F  F12  1  0.00000000  0.00000000  0.81621124  1
  F  F13  1  0.00000000  0.00000000  0.31621124  1
  F  F14  1  0.00000000  0.00000000  0.18378876  1
  F  F15  1  0.00000000  0.00000000  0.68378876  1
  F  F16  1  0.66666667  0.33333333  0.25000000  1
  F  F17  1  0.33333333  0.66666667  0.75000000  1
  F  F18  1  0.73950611  0.82994429  0.31213484  1
  F  F19  1  0.17005571  0.90956182  0.31213484  1
  F  F20  1  0.09043818  0.26049389  0.31213484  1
  F  F21  1  0.26049389  0.17005571  0.81213484  1
  F  F22  1  0.82994429  0.09043818  0.81213484  1
  F  F23  1  0.90956182  0.73950611  0.81213484  1
  F  F24  1  0.26049389  0.17005571  0.68786516  1
  F  F25  1  0.82994429  0.09043818  0.68786516  1
  F  F26  1  0.90956182  0.73950611  0.68786516  1
  F  F27  1  0.73950611  0.82994429  0.18786516  1
  F  F28  1  0.17005571  0.90956182  0.18786516  1
  F  F29  1  0.09043818  0.26049389  0.18786516  1
  F  F30  1  0.50000000  0.00000000  -0.00000000  1
  F  F31  1  0.00000000  0.50000000  0.00000000  1
  F  F32  1  0.50000000  0.50000000  0.00000000  1
  F  F33  1  0.50000000  0.00000000  0.50000000  1
  F  F34  1  0.00000000  0.50000000  0.50000000  1
  F  F35  1  0.50000000  0.50000000  0.50000000  1
  Li  Li36  1  0.33333333  0.66666667  0.25000000  1
  Li  Li37  1  0.66666667  0.33333333  0.75000000  1
  Li  Li38  1  0.17972833  0.89073812  0.13084404  1
  Li  Li39  1  0.10926188  0.28899020  0.13084404  1
  Li  Li40  1  0.71100980  0.82027167  0.13084404  1
  Li  Li41  1  0.82027167  0.10926188  0.63084404  1
  Li  Li42  1  0.89073812  0.71100980  0.63084404  1
  Li  Li43  1  0.28899020  0.17972833  0.63084404  1
  Li  Li44  1  0.82027167  0.10926188  0.86915596  1
  Li  Li45  1  0.89073812  0.71100980  0.86915596  1
  Li  Li46  1  0.28899020  0.17972833  0.86915596  1
  Li  Li47  1  0.17972833  0.89073812  0.36915596  1
  Li  Li48  1  0.10926188  0.28899020  0.36915596  1
  Li  Li49  1  0.71100980  0.82027167  0.36915596  1
  Li  Li50  1  0.29795727  0.53082643  0.97218531  1
  Li  Li51  1  0.46917357  0.76713083  0.97218531  1
  Li  Li52  1  0.23286917  0.70204273  0.97218531  1
  Li  Li53  1  0.70204273  0.46917357  0.47218531  1
  Li  Li54  1  0.53082643  0.23286917  0.47218531  1
  Li  Li55  1  0.76713083  0.29795727  0.47218531  1
  Li  Li56  1  0.70204273  0.46917357  0.02781469  1
  Li  Li57  1  0.53082643  0.23286917  0.02781469  1
  Li  Li58  1  0.76713083  0.29795727  0.02781469  1
  Li  Li59  1  0.29795727  0.53082643  0.52781469  1
  Li  Li60  1  0.46917357  0.76713083  0.52781469  1
  Li  Li61  1  0.23286917  0.70204273  0.52781469  1
  Li  Li62  1  0.00000000  0.00000000  0.00000000  1
  Li  Li63  1  0.00000000  0.00000000  0.50000000  1
  Li  Li64  1  0.40609066  0.45327532  0.25000000  1
  Li  Li65  1  0.54672468  0.95281535  0.25000000  1
  Li  Li66  1  0.04718465  0.59390934  0.25000000  1
  Li  Li67  1  0.59390934  0.54672468  0.75000000  1
  Li  Li68  1  0.45327532  0.04718465  0.75000000  1
  Li  Li69  1  0.95281535  0.40609066  0.75000000  1
  Li  Li70  1  0.00000000  0.00000000  0.25000000  1
  Li  Li71  1  0.00000000  0.00000000  0.75000000  1
