# generated using pymatgen
data_LiF
_symmetry_space_group_name_H-M   'P 1'
_cell_length_a   7.91405129
_cell_length_b   7.91405129
_cell_length_c   7.64444040
_cell_angle_alpha   90.00000000
_cell_angle_beta   90.00000000
_cell_angle_gamma   120.00000000
_symmetry_Int_Tables_number   1
_chemical_formula_structural   LiF
_chemical_formula_sum   'Li13 F13'
_cell_volume   414.64272711
_cell_formula_units_Z   13
loop_
 _symmetry_equiv_pos_site_id
 _symmetry_equiv_pos_as_xyz
  1  'x, y, z'
loop_
 _atom_site_type_symbol
 _atom_site_label
 _atom_site_symmetry_multiplicity
 _atom_site_fract_x
 _atom_site_fract_y
 _atom_site_fract_z
 _atom_site_occupancy
  F  F0  1  0.01025067  0.42212307  0.19652275  1
  F  F1  1  0.57787693  0.58812760  0.19652275  1
  F  F2  1  0.41187240  0.98974933  0.19652275  1
  F  F3  1  0.57787693  0.98974933  0.80347725  1
  F  F4  1  0.41187240  0.42212307  0.80347725  1
  F  F5  1  0.01025067  0.58812760  0.80347725  1
  F  F6  1  0.84877277  0.54881015  0.31884900  1
  F  F7  1  0.45118985  0.29996262  0.31884900  1
  F  F8  1  0.70003738  0.15122723  0.31884900  1
  F  F9  1  0.45118985  0.15122723  0.68115100  1
  F  F10  1  0.70003738  0.54881015  0.68115100  1
  F  F11  1  0.84877277  0.29996262  0.68115100  1
  F  F12  1  0.33333333  0.66666667  0.00000000  1
  Li  Li13  1  0.82663255  0.17336745  0.00000000  1
  Li  Li14  1  0.82663255  0.65326510  0.00000000  1
  Li  Li15  1  0.34673490  0.17336745  0.00000000  1
  Li  Li16  1  0.25601263  0.70891479  0.35691049  1
  Li  Li17  1  -0.70891479  -0.45290216  0.35691049  1
  Li  Li18  1  0.45290216  -0.25601263  0.35691049  1
  Li  Li19  1  -0.70891479  -0.25601263  -0.35691049  1
  Li  Li20  1  0.45290216  0.70891479  -0.35691049  1
  Li  Li21  1  0.25601263  -0.45290216  -0.35691049  1
  Li  Li22  1  0.00000000  0.00000000  0.00000000  1
  Li  Li23  1  0.20031536  0.79968464  0.50000000  1
  Li  Li24  1  0.20031536  0.40063072  0.50000000  1
  Li  Li25  1  0.59936928  0.79968464  0.50000000  1
