# generated using pymatgen
data_LiF
_symmetry_space_group_name_H-M   'P 1'
_cell_length_a   13.15001482
_cell_length_b   7.84785632
_cell_length_c   6.37141934
_cell_angle_alpha   90.00000000
_cell_angle_beta   90.00000000
_cell_angle_gamma   90.00000000
_symmetry_Int_Tables_number   1
_chemical_formula_structural   LiF
_chemical_formula_sum   'Li28 F28'
_cell_volume   657.52682449
_cell_formula_units_Z   28
loop_
 _symmetry_equiv_pos_site_id
 _symmetry_equiv_pos_as_xyz
  1  'x, y, z'
loop_
 _atom_site_type_symbol
 _atom_site_label
 _atom_site_symmetry_multiplicity
 _atom_site_fract_x
 _atom_site_fract_y
 _atom_site_fract_z
 _atom_site_occupancy
  F  F0  1  0.56438189  0.20511042  0.56366333  1
  F  F1  1  0.93561811  0.79488958  0.06366333  1
  F  F2  1  0.43561811  0.70511042  0.43633667  1
  F  F3  1  0.06438189  0.29488958  0.93633667  1
  F  F4  1  0.43561811  0.79488958  0.43633667  1
  F  F5  1  0.06438189  0.20511042  0.93633667  1
  F  F6  1  0.56438189  0.29488958  0.56366333  1
  F  F7  1  0.93561811  0.70511042  0.06366333  1
  F  F8  1  0.51983527  0.48162320  0.81468114  1
  F  F9  1  0.98016473  0.51837680  0.31468114  1
  F  F10  1  0.48016473  0.98162320  0.18531886  1
  F  F11  1  0.01983527  0.01837680  0.68531886  1
  F  F12  1  0.48016473  0.51837680  0.18531886  1
  F  F13  1  0.01983527  0.48162320  0.68531886  1
  F  F14  1  0.51983527  0.01837680  0.81468114  1
  F  F15  1  0.98016473  0.98162320  0.31468114  1
  F  F16  1  0.82190763  0.25000000  0.22950926  1
  F  F17  1  0.67809237  0.75000000  0.72950926  1
  F  F18  1  0.17809237  0.75000000  0.77049074  1
  F  F19  1  0.32190763  0.25000000  0.27049074  1
  F  F20  1  0.64875741  0.83397491  0.27971496  1
  F  F21  1  0.85124259  0.16602509  0.77971496  1
  F  F22  1  0.35124259  0.33397491  0.72028504  1
  F  F23  1  0.14875741  0.66602509  0.22028504  1
  F  F24  1  0.35124259  0.16602509  0.72028504  1
  F  F25  1  0.14875741  0.83397491  0.22028504  1
  F  F26  1  0.64875741  0.66602509  0.27971496  1
  F  F27  1  0.85124259  0.33397491  0.77971496  1
  Li  Li28  1  0.24046545  0.34148267  0.75050448  1
  Li  Li29  1  0.25953455  -0.34148267  1.25050448  1
  Li  Li30  1  -0.24046545  0.84148267  -0.75050448  1
  Li  Li31  1  0.74046545  0.15851733  -0.25050448  1
  Li  Li32  1  -0.24046545  -0.34148267  -0.75050448  1
  Li  Li33  1  0.74046545  0.34148267  -0.25050448  1
  Li  Li34  1  0.24046545  0.15851733  0.75050448  1
  Li  Li35  1  0.25953455  0.84148267  1.25050448  1
  Li  Li36  1  0.63454580  0.15567896  0.93421899  1
  Li  Li37  1  0.86545420  0.84432104  0.43421899  1
  Li  Li38  1  0.36545420  0.65567896  0.06578101  1
  Li  Li39  1  0.13454580  0.34432104  0.56578101  1
  Li  Li40  1  0.36545420  0.84432104  0.06578101  1
  Li  Li41  1  0.13454580  0.15567896  0.56578101  1
  Li  Li42  1  0.63454580  0.34432104  0.93421899  1
  Li  Li43  1  0.86545420  0.65567896  0.43421899  1
  Li  Li44  1  0.35182185  0.40442640  0.40524813  1
  Li  Li45  1  0.14817815  0.59557360  0.90524813  1
  Li  Li46  1  0.64817815  0.90442640  0.59475187  1
  Li  Li47  1  0.85182185  0.09557360  0.09475187  1
  Li  Li48  1  0.64817815  0.59557360  0.59475187  1
  Li  Li49  1  0.85182185  0.40442640  0.09475187  1
  Li  Li50  1  0.35182185  0.09557360  0.40524813  1
  Li  Li51  1  0.14817815  0.90442640  0.90524813  1
  Li  Li52  1  0.15386246  0.25000000  0.28614429  1
  Li  Li53  1  0.34613754  0.75000000  0.78614429  1
  Li  Li54  1  0.84613754  0.75000000  0.71385571  1
  Li  Li55  1  0.65386246  0.25000000  0.21385571  1
