# generated using pymatgen
data_LiF
_symmetry_space_group_name_H-M   'P 1'
_cell_length_a   5.54409807
_cell_length_b   5.54409807
_cell_length_c   23.30643862
_cell_angle_alpha   90.00000000
_cell_angle_beta   90.00000000
_cell_angle_gamma   120.00000000
_symmetry_Int_Tables_number   1
_chemical_formula_structural   LiF
_chemical_formula_sum   'Li30 F30'
_cell_volume   620.39509438
_cell_formula_units_Z   30
loop_
 _symmetry_equiv_pos_site_id
 _symmetry_equiv_pos_as_xyz
  1  'x, y, z'
loop_
 _atom_site_type_symbol
 _atom_site_label
 _atom_site_symmetry_multiplicity
 _atom_site_fract_x
 _atom_site_fract_y
 _atom_site_fract_z
 _atom_site_occupancy
  F  F0  1  0.33333333  0.66666667  0.50000000  1
  F  F1  1  0.02840146  0.54793779  0.12459240  1
  F  F2  1  0.45206221  0.48046367  0.12459240  1
  F  F3  1  0.51953633  0.97159854  0.12459240  1
  F  F4  1  0.45206221  0.97159854  0.87540760  1
  F  F5  1  0.51953633  0.54793779  0.87540760  1
  F  F6  1  0.02840146  0.48046367  0.87540760  1
  F  F7  1  0.32339567  0.41773330  0.23271710  1
  F  F8  1  0.58226670  0.90566237  0.23271710  1
  F  F9  1  0.09433763  0.67660433  0.23271710  1
  F  F10  1  0.58226670  0.67660433  0.76728290  1
  F  F11  1  0.09433763  0.41773330  0.76728290  1
  F  F12  1  0.32339567  0.90566237  0.76728290  1
  F  F13  1  0.34791930  0.77001612  0.43074323  1
  F  F14  1  0.22998388  0.57790318  0.43074323  1
  F  F15  1  0.42209682  0.65208070  0.43074323  1
  F  F16  1  0.22998388  0.65208070  0.56925677  1
  F  F17  1  0.42209682  0.77001612  0.56925677  1
  F  F18  1  0.34791930  0.57790318  0.56925677  1
  F  F19  1  0.78630804  0.21369196  0.00000000  1
  F  F20  1  0.78630804  0.57261609  0.00000000  1
  F  F21  1  0.42738391  0.21369196  0.00000000  1
  F  F22  1  0.55242990  0.21855268  0.84026120  1
  F  F23  1  0.78144732  0.33387722  0.84026120  1
  F  F24  1  0.66612278  0.44757010  0.84026120  1
  F  F25  1  0.78144732  0.44757010  0.15973880  1
  F  F26  1  0.66612278  0.21855268  0.15973880  1
  F  F27  1  0.55242990  0.33387722  0.15973880  1
  F  F28  1  0.66666667  0.33333333  0.25212299  1
  F  F29  1  0.66666667  0.33333333  0.74787701  1
  Li  Li30  1  0.66666667  0.33333333  0.30359488  1
  Li  Li31  1  0.66666667  0.33333333  0.69640512  1
  Li  Li32  1  0.87077733  0.78561111  0.69685487  1
  Li  Li33  1  -0.78561111  0.08516623  0.69685487  1
  Li  Li34  1  -0.08516623  -0.87077733  0.69685487  1
  Li  Li35  1  -0.78561111  -0.87077733  -0.69685487  1
  Li  Li36  1  -0.08516623  0.78561111  -0.69685487  1
  Li  Li37  1  0.87077733  0.08516623  -0.69685487  1
  Li  Li38  1  0.00000000  0.00000000  0.12937621  1
  Li  Li39  1  0.00000000  0.00000000  0.87062379  1
  Li  Li40  1  0.21721824  0.80343592  0.69534840  1
  Li  Li41  1  0.19656408  0.41378232  0.69534840  1
  Li  Li42  1  0.58621768  0.78278176  0.69534840  1
  Li  Li43  1  0.19656408  0.78278176  0.30465160  1
  Li  Li44  1  0.58621768  0.80343592  0.30465160  1
  Li  Li45  1  0.21721824  0.41378232  0.30465160  1
  Li  Li46  1  0.00000000  0.00000000  0.50000000  1
  Li  Li47  1  0.33333333  0.66666667  0.36377821  1
  Li  Li48  1  0.33333333  0.66666667  0.63622179  1
  Li  Li49  1  0.27167856  0.39061888  0.88517466  1
  Li  Li50  1  0.60938112  0.88105968  0.88517466  1
  Li  Li51  1  0.11894032  0.72832144  0.88517466  1
  Li  Li52  1  0.60938112  0.72832144  0.11482534  1
  Li  Li53  1  0.11894032  0.39061888  0.11482534  1
  Li  Li54  1  0.27167856  0.88105968  0.11482534  1
  Li  Li55  1  0.66666667  0.33333333  0.79834080  1
  Li  Li56  1  0.66666667  0.33333333  0.20165920  1
  Li  Li57  1  0.33333333  0.66666667  0.91118632  1
  Li  Li58  1  0.33333333  0.66666667  0.08881368  1
  Li  Li59  1  0.33333333  0.66666667  0.00000000  1
