# generated using pymatgen
data_LiF
_symmetry_space_group_name_H-M   'P 1'
_cell_length_a   13.44628933
_cell_length_b   4.06543955
_cell_length_c   7.43096890
_cell_angle_alpha   90.00000000
_cell_angle_beta   90.00000000
_cell_angle_gamma   90.00000000
_symmetry_Int_Tables_number   1
_chemical_formula_structural   LiF
_chemical_formula_sum   'Li24 F24'
_cell_volume   406.21448305
_cell_formula_units_Z   24
loop_
 _symmetry_equiv_pos_site_id
 _symmetry_equiv_pos_as_xyz
  1  'x, y, z'
loop_
 _atom_site_type_symbol
 _atom_site_label
 _atom_site_symmetry_multiplicity
 _atom_site_fract_x
 _atom_site_fract_y
 _atom_site_fract_z
 _atom_site_occupancy
  F  F0  1  0.51527982  0.25000000  0.34805733  1
  F  F1  1  0.98472018  0.75000000  0.84805733  1
  F  F2  1  0.48472018  0.75000000  0.65194267  1
  F  F3  1  0.01527982  0.25000000  0.15194267  1
  F  F4  1  0.08607761  0.25000000  0.92697151  1
  F  F5  1  0.41392239  0.75000000  0.42697151  1
  F  F6  1  0.91392239  0.75000000  0.07302849  1
  F  F7  1  0.58607761  0.25000000  0.57302849  1
  F  F8  1  0.34447765  0.33341269  0.70909188  1
  F  F9  1  0.15552235  0.66658731  0.20909188  1
  F  F10  1  0.65552235  0.83341269  0.29090812  1
  F  F11  1  0.84447765  0.16658731  0.79090812  1
  F  F12  1  0.65552235  0.66658731  0.29090812  1
  F  F13  1  0.84447765  0.33341269  0.79090812  1
  F  F14  1  0.34447765  0.16658731  0.70909188  1
  F  F15  1  0.15552235  0.83341269  0.20909188  1
  F  F16  1  0.30423641  0.86454582  0.57458198  1
  F  F17  1  0.19576359  0.13545418  0.07458198  1
  F  F18  1  0.69576359  0.36454582  0.42541802  1
  F  F19  1  0.80423641  0.63545418  0.92541802  1
  F  F20  1  0.69576359  0.13545418  0.42541802  1
  F  F21  1  0.80423641  0.86454582  0.92541802  1
  F  F22  1  0.30423641  0.63545418  0.57458198  1
  F  F23  1  0.19576359  0.36454582  0.07458198  1
  Li  Li24  1  0.00000000  0.00000000  0.50000000  1
  Li  Li25  1  0.50000000  -0.00000000  0.00000000  1
  Li  Li26  1  0.00000000  0.50000000  0.50000000  1
  Li  Li27  1  0.50000000  0.50000000  0.00000000  1
  Li  Li28  1  0.00000000  0.00000000  0.00000000  1
  Li  Li29  1  0.50000000  -0.00000000  0.50000000  1
  Li  Li30  1  0.00000000  0.50000000  0.00000000  1
  Li  Li31  1  0.50000000  0.50000000  0.50000000  1
  Li  Li32  1  0.30090356  0.93335407  0.30342257  1
  Li  Li33  1  0.19909644  -0.93335407  0.80342257  1
  Li  Li34  1  -0.30090356  1.43335407  -0.30342257  1
  Li  Li35  1  0.80090356  -0.43335407  0.19657743  1
  Li  Li36  1  -0.30090356  -0.93335407  -0.30342257  1
  Li  Li37  1  0.80090356  0.93335407  0.19657743  1
  Li  Li38  1  0.30090356  -0.43335407  0.30342257  1
  Li  Li39  1  0.19909644  1.43335407  0.80342257  1
  Li  Li40  1  0.24585655  0.25000000  0.53079529  1
  Li  Li41  1  0.25414345  0.75000000  0.03079529  1
  Li  Li42  1  0.75414345  0.75000000  0.46920471  1
  Li  Li43  1  0.74585655  0.25000000  0.96920471  1
  Li  Li44  1  0.83526128  0.25000000  0.58734468  1
  Li  Li45  1  0.66473872  0.75000000  0.08734468  1
  Li  Li46  1  0.16473872  0.75000000  0.41265532  1
  Li  Li47  1  0.33526128  0.25000000  0.91265532  1
