# generated using pymatgen
data_LiF
_symmetry_space_group_name_H-M   'P 1'
_cell_length_a   8.63770925
_cell_length_b   11.11811074
_cell_length_c   7.23261161
_cell_angle_alpha   90.00000000
_cell_angle_beta   90.00000000
_cell_angle_gamma   90.00000000
_symmetry_Int_Tables_number   1
_chemical_formula_structural   LiF
_chemical_formula_sum   'Li30 F30'
_cell_volume   694.58391368
_cell_formula_units_Z   30
loop_
 _symmetry_equiv_pos_site_id
 _symmetry_equiv_pos_as_xyz
  1  'x, y, z'
loop_
 _atom_site_type_symbol
 _atom_site_label
 _atom_site_symmetry_multiplicity
 _atom_site_fract_x
 _atom_site_fract_y
 _atom_site_fract_z
 _atom_site_occupancy
  F  F0  1  0.69646419  0.61510924  0.11757311  1
  F  F1  1  -0.69646419  -0.61510924  0.11757311  1
  F  F2  1  -0.19646419  1.11510924  -0.11757311  1
  F  F3  1  1.19646419  -0.11510924  -0.11757311  1
  F  F4  1  -0.69646419  -0.61510924  -0.11757311  1
  F  F5  1  0.69646419  0.61510924  -0.11757311  1
  F  F6  1  1.19646419  -0.11510924  0.11757311  1
  F  F7  1  -0.19646419  1.11510924  0.11757311  1
  F  F8  1  0.16243039  0.60932880  0.06360599  1
  F  F9  1  0.83756961  0.39067120  0.06360599  1
  F  F10  1  0.33756961  0.10932880  0.93639401  1
  F  F11  1  0.66243039  0.89067120  0.93639401  1
  F  F12  1  0.83756961  0.39067120  0.93639401  1
  F  F13  1  0.16243039  0.60932880  0.93639401  1
  F  F14  1  0.66243039  0.89067120  0.06360599  1
  F  F15  1  0.33756961  0.10932880  0.06360599  1
  F  F16  1  0.03746877  0.77823552  0.82795965  1
  F  F17  1  0.96253123  0.22176448  0.82795965  1
  F  F18  1  0.46253123  0.27823552  0.17204035  1
  F  F19  1  0.53746877  0.72176448  0.17204035  1
  F  F20  1  0.96253123  0.22176448  0.17204035  1
  F  F21  1  0.03746877  0.77823552  0.17204035  1
  F  F22  1  0.53746877  0.72176448  0.82795965  1
  F  F23  1  0.46253123  0.27823552  0.82795965  1
  F  F24  1  0.00000000  0.00000000  0.00000000  1
  F  F25  1  0.50000000  0.50000000  0.00000000  1
  F  F26  1  0.00000000  0.50000000  0.74576504  1
  F  F27  1  0.50000000  0.00000000  0.25423496  1
  F  F28  1  0.00000000  0.50000000  0.25423496  1
  F  F29  1  0.50000000  0.00000000  0.74576504  1
  Li  Li30  1  0.19142587  0.91604744  0.34459731  1
  Li  Li31  1  0.80857413  0.08395256  0.34459731  1
  Li  Li32  1  0.30857413  0.41604744  0.65540269  1
  Li  Li33  1  0.69142587  0.58395256  0.65540269  1
  Li  Li34  1  0.80857413  0.08395256  0.65540269  1
  Li  Li35  1  0.19142587  0.91604744  0.65540269  1
  Li  Li36  1  0.69142587  0.58395256  0.34459731  1
  Li  Li37  1  0.30857413  0.41604744  0.34459731  1
  Li  Li38  1  0.37295878  0.31760680  0.50000000  1
  Li  Li39  1  0.62704122  0.68239320  0.50000000  1
  Li  Li40  1  0.12704122  0.81760680  0.50000000  1
  Li  Li41  1  0.87295878  0.18239320  0.50000000  1
  Li  Li42  1  0.41433429  0.03764406  0.36734621  1
  Li  Li43  1  0.58566571  0.96235594  0.36734621  1
  Li  Li44  1  0.08566571  0.53764406  0.63265379  1
  Li  Li45  1  0.91433429  0.46235594  0.63265379  1
  Li  Li46  1  0.58566571  0.96235594  0.63265379  1
  Li  Li47  1  0.41433429  0.03764406  0.63265379  1
  Li  Li48  1  0.91433429  0.46235594  0.36734621  1
  Li  Li49  1  0.08566571  0.53764406  0.36734621  1
  Li  Li50  1  0.03067691  0.30234292  0.00000000  1
  Li  Li51  1  0.96932309  0.69765708  0.00000000  1
  Li  Li52  1  0.46932309  0.80234292  0.00000000  1
  Li  Li53  1  0.53067691  0.19765708  0.00000000  1
  Li  Li54  1  0.04725252  0.42622092  -0.00000000  1
  Li  Li55  1  0.95274748  0.57377908  -0.00000000  1
  Li  Li56  1  0.45274748  0.92622092  0.00000000  1
  Li  Li57  1  0.54725252  0.07377908  0.00000000  1
  Li  Li58  1  0.00000000  0.50000000  0.50000000  1
  Li  Li59  1  0.50000000  0.00000000  0.50000000  1
