# generated using pymatgen
data_Li2Y2As2P2Se
_symmetry_space_group_name_H-M   'P 1'
_cell_length_a   5.50781827
_cell_length_b   5.65522386
_cell_length_c   7.34600058
_cell_angle_alpha   93.88267948
_cell_angle_beta   98.45566870
_cell_angle_gamma   105.59518031
_symmetry_Int_Tables_number   1
_chemical_formula_structural   Li2Y2As2P2Se
_chemical_formula_sum   'Li2 Y2 As2 P2 Se1'
_cell_volume   216.60792634
_cell_formula_units_Z   1
loop_
 _symmetry_equiv_pos_site_id
 _symmetry_equiv_pos_as_xyz
  1  'x, y, z'
loop_
 _atom_site_type_symbol
 _atom_site_label
 _atom_site_symmetry_multiplicity
 _atom_site_fract_x
 _atom_site_fract_y
 _atom_site_fract_z
 _atom_site_occupancy
  Se  Se0  1  0.00000000  0.00000000  0.00000000  1
  Y  Y1  1  0.50000000  0.50000000  0.50000000  1
  Y  Y2  1  0.50000000  0.50000000  0.00000000  1
  P  P3  1  0.50000000  0.00000000  0.50000000  1
  P  P4  1  0.00000000  0.50000000  0.50000000  1
  As  As5  1  0.44487359  0.17853084  0.60646277  1
  As  As6  1  0.93204670  0.95462741  0.89512612  1
  Li  Li7  1  0.85795986  0.12500009  0.08152034  1
  Li  Li8  1  0.43623017  0.35540620  0.02297945  1
