# generated using pymatgen
data_LiF
_symmetry_space_group_name_H-M   'P 1'
_cell_length_a   6.00562076
_cell_length_b   8.23354918
_cell_length_c   9.53945417
_cell_angle_alpha   90.00000000
_cell_angle_beta   90.00000000
_cell_angle_gamma   90.00000000
_symmetry_Int_Tables_number   1
_chemical_formula_structural   LiF
_chemical_formula_sum   'Li18 F18'
_cell_volume   471.70286447
_cell_formula_units_Z   18
loop_
 _symmetry_equiv_pos_site_id
 _symmetry_equiv_pos_as_xyz
  1  'x, y, z'
loop_
 _atom_site_type_symbol
 _atom_site_label
 _atom_site_symmetry_multiplicity
 _atom_site_fract_x
 _atom_site_fract_y
 _atom_site_fract_z
 _atom_site_occupancy
  F  F0  1  0.15062816  0.84474328  0.82968183  1
  F  F1  1  -0.15062816  -0.84474328  0.82968183  1
  F  F2  1  0.34937184  1.34474328  -0.82968183  1
  F  F3  1  0.65062816  -0.34474328  -0.82968183  1
  F  F4  1  -0.15062816  -0.84474328  -0.82968183  1
  F  F5  1  0.15062816  0.84474328  -0.82968183  1
  F  F6  1  0.65062816  -0.34474328  0.82968183  1
  F  F7  1  0.34937184  1.34474328  0.82968183  1
  F  F8  1  0.45971723  0.56212889  0.61518308  1
  F  F9  1  0.54028277  0.43787111  0.61518308  1
  F  F10  1  0.04028277  0.06212889  0.38481692  1
  F  F11  1  0.95971723  0.93787111  0.38481692  1
  F  F12  1  0.54028277  0.43787111  0.38481692  1
  F  F13  1  0.45971723  0.56212889  0.38481692  1
  F  F14  1  0.95971723  0.93787111  0.61518308  1
  F  F15  1  0.04028277  0.06212889  0.61518308  1
  F  F16  1  0.00000000  0.00000000  0.00000000  1
  F  F17  1  0.50000000  0.50000000  0.00000000  1
  Li  Li18  1  0.00000000  0.00000000  0.88754281  1
  Li  Li19  1  0.50000000  0.50000000  0.11245719  1
  Li  Li20  1  0.00000000  0.00000000  0.11245719  1
  Li  Li21  1  0.50000000  0.50000000  0.88754281  1
  Li  Li22  1  0.72997303  0.70624269  0.00000000  1
  Li  Li23  1  0.27002697  0.29375731  0.00000000  1
  Li  Li24  1  0.77002697  0.20624269  -0.00000000  1
  Li  Li25  1  0.22997303  0.79375731  0.00000000  1
  Li  Li26  1  0.00000000  0.00000000  0.50000000  1
  Li  Li27  1  0.50000000  0.50000000  0.50000000  1
  Li  Li28  1  0.00000000  0.50000000  0.50000000  1
  Li  Li29  1  0.50000000  0.00000000  0.50000000  1
  Li  Li30  1  0.69829912  0.50461308  0.00000000  1
  Li  Li31  1  0.30170088  0.49538692  0.00000000  1
  Li  Li32  1  0.80170088  0.00461308  0.00000000  1
  Li  Li33  1  0.19829912  0.99538692  0.00000000  1
  Li  Li34  1  0.00000000  0.50000000  0.00000000  1
  Li  Li35  1  0.50000000  0.00000000  0.00000000  1
