# generated using pymatgen
data_Li2Ca3F8
_symmetry_space_group_name_H-M   'P 1'
_cell_length_a   13.29622748
_cell_length_b   13.29622748
_cell_length_c   10.12177005
_cell_angle_alpha   90.00000000
_cell_angle_beta   90.00000000
_cell_angle_gamma   120.00000000
_symmetry_Int_Tables_number   1
_chemical_formula_structural   Li2Ca3F8
_chemical_formula_sum   'Li16 Ca24 F64'
_cell_volume   1549.68693504
_cell_formula_units_Z   8
loop_
 _symmetry_equiv_pos_site_id
 _symmetry_equiv_pos_as_xyz
  1  'x, y, z'
loop_
 _atom_site_type_symbol
 _atom_site_label
 _atom_site_symmetry_multiplicity
 _atom_site_fract_x
 _atom_site_fract_y
 _atom_site_fract_z
 _atom_site_occupancy
  Ca  Ca0  1  0.39700399  0.31704359  0.79377612  1
  Ca  Ca1  1  0.68295641  0.07996040  0.79377612  1
  Ca  Ca2  1  0.92003960  0.60299601  0.79377612  1
  Ca  Ca3  1  0.68295641  0.60299601  0.20622388  1
  Ca  Ca4  1  0.92003960  0.31704359  0.20622388  1
  Ca  Ca5  1  0.39700399  0.07996040  0.20622388  1
  Ca  Ca6  1  0.91161670  0.08838330  0.50000000  1
  Ca  Ca7  1  0.91161670  0.82323340  0.50000000  1
  Ca  Ca8  1  0.17676660  0.08838330  0.50000000  1
  Ca  Ca9  1  0.94473570  0.05526430  0.00000000  1
  Ca  Ca10  1  0.94473570  0.88947141  0.00000000  1
  Ca  Ca11  1  0.11052859  0.05526430  0.00000000  1
  Ca  Ca12  1  0.03194309  0.47992821  0.28425094  1
  Ca  Ca13  1  0.52007179  0.55201488  0.28425094  1
  Ca  Ca14  1  0.44798512  0.96805691  0.28425094  1
  Ca  Ca15  1  0.52007179  0.96805691  0.71574906  1
  Ca  Ca16  1  0.44798512  0.47992821  0.71574906  1
  Ca  Ca17  1  0.03194309  0.55201488  0.71574906  1
  Ca  Ca18  1  0.59463618  0.72266867  0.25459925  1
  Ca  Ca19  1  0.27733133  0.87196751  0.25459925  1
  Ca  Ca20  1  0.12803249  0.40536382  0.25459925  1
  Ca  Ca21  1  0.27733133  0.40536382  0.74540075  1
  Ca  Ca22  1  0.12803249  0.72266867  0.74540075  1
  Ca  Ca23  1  0.59463618  0.87196751  0.74540075  1
  F  F24  1  0.64521516  0.17249803  0.08308703  1
  F  F25  1  -0.17249803  0.47271713  0.08308703  1
  F  F26  1  -0.47271713  -0.64521516  0.08308703  1
  F  F27  1  -0.17249803  -0.64521516  -0.08308703  1
  F  F28  1  -0.47271713  0.17249803  -0.08308703  1
  F  F29  1  0.64521516  0.47271713  -0.08308703  1
  F  F30  1  0.12196408  0.87803592  0.50000000  1
  F  F31  1  0.12196408  0.24392817  0.50000000  1
  F  F32  1  0.75607183  0.87803592  0.50000000  1
  F  F33  1  0.33418115  0.41765891  0.64851961  1
  F  F34  1  0.58234109  0.91652224  0.64851961  1
  F  F35  1  0.08347776  0.66581885  0.64851961  1
  F  F36  1  0.58234109  0.66581885  0.35148039  1
  F  F37  1  0.08347776  0.41765891  0.35148039  1
  F  F38  1  0.33418115  0.91652224  0.35148039  1
  F  F39  1  0.66666667  0.33333333  0.50000000  1
  F  F40  1  0.11303547  0.03265284  0.25338164  1
  F  F41  1  0.96734716  0.08038263  0.25338164  1
  F  F42  1  0.91961737  0.88696453  0.25338164  1
  F  F43  1  0.96734716  0.88696453  0.74661836  1
  F  F44  1  0.91961737  0.03265284  0.74661836  1
  F  F45  1  0.11303547  0.08038263  0.74661836  1
  F  F46  1  0.30390347  0.93613388  0.42792678  1
  F  F47  1  0.06386612  0.36776959  0.42792678  1
  F  F48  1  0.63223041  0.69609653  0.42792678  1
  F  F49  1  0.06386612  0.69609653  0.57207322  1
  F  F50  1  0.63223041  0.93613388  0.57207322  1
  F  F51  1  0.30390347  0.36776959  0.57207322  1
  F  F52  1  0.13387782  0.73416289  0.52723445  1
  F  F53  1  0.26583711  0.39971493  0.52723445  1
  F  F54  1  0.60028507  0.86612218  0.52723445  1
  F  F55  1  0.26583711  0.86612218  0.47276555  1
  F  F56  1  0.60028507  0.73416289  0.47276555  1
  F  F57  1  0.13387782  0.39971493  0.47276555  1
  F  F58  1  0.24487998  0.30523214  0.12998948  1
  F  F59  1  0.69476786  0.93964784  0.12998948  1
  F  F60  1  0.06035216  0.75512002  0.12998948  1
  F  F61  1  0.69476786  0.75512002  0.87001052  1
  F  F62  1  0.06035216  0.30523214  0.87001052  1
  F  F63  1  0.24487998  0.93964784  0.87001052  1
  F  F64  1  0.07105903  0.79758077  0.44050895  1
  F  F65  1  0.20241923  0.27347826  0.44050895  1
  F  F66  1  0.72652174  0.92894097  0.44050895  1
  F  F67  1  0.20241923  0.92894097  0.55949105  1
  F  F68  1  0.72652174  0.79758077  0.55949105  1
  F  F69  1  0.07105903  0.27347826  0.55949105  1
  F  F70  1  0.18481341  0.94716938  0.76129756  1
  F  F71  1  0.05283062  0.23764403  0.76129756  1
  F  F72  1  0.76235597  0.81518659  0.76129756  1
  F  F73  1  0.05283062  0.81518659  0.23870244  1
  F  F74  1  0.76235597  0.94716938  0.23870244  1
  F  F75  1  0.18481341  0.23764403  0.23870244  1
  F  F76  1  0.89166633  0.98747972  0.51655744  1
  F  F77  1  0.01252028  0.90418661  0.51655744  1
  F  F78  1  0.09581339  0.10833367  0.51655744  1
  F  F79  1  0.01252028  0.10833367  0.48344256  1
  F  F80  1  0.09581339  0.98747972  0.48344256  1
  F  F81  1  0.89166633  0.90418661  0.48344256  1
  F  F82  1  0.66666667  0.33333333  0.00000000  1
  F  F83  1  0.33333333  0.66666667  0.50000000  1
  F  F84  1  0.59623223  0.40376777  0.00000000  1
  F  F85  1  0.59623223  0.19246446  0.00000000  1
  F  F86  1  0.80753554  0.40376777  0.00000000  1
  F  F87  1  0.00000000  0.00000000  0.00000000  1
  Li  Li88  1  0.74698077  0.44478696  0.38997076  1
  Li  Li89  1  0.55521304  0.30219381  0.38997076  1
  Li  Li90  1  0.69780619  0.25301923  0.38997076  1
  Li  Li91  1  0.55521304  0.25301923  0.61002924  1
  Li  Li92  1  0.69780619  0.44478696  0.61002924  1
  Li  Li93  1  0.74698077  0.30219381  0.61002924  1
  Li  Li94  1  0.96350350  0.30729199  0.89971231  1
  Li  Li95  1  0.69270801  0.65621152  0.89971231  1
  Li  Li96  1  0.34378848  0.03649650  0.89971231  1
  Li  Li97  1  0.69270801  0.03649650  0.10028769  1
  Li  Li98  1  0.34378848  0.30729199  0.10028769  1
  Li  Li99  1  0.96350350  0.65621152  0.10028769  1
  Li  Li100  1  0.66666667  0.33333333  0.27324883  1
  Li  Li101  1  0.66666667  0.33333333  0.72675117  1
  Li  Li102  1  0.66666667  0.33333333  0.09838458  1
  Li  Li103  1  0.66666667  0.33333333  0.90161542  1
