# generated using pymatgen
data_LiF
_symmetry_space_group_name_H-M   'P 1'
_cell_length_a   10.94652533
_cell_length_b   10.94652533
_cell_length_c   10.43574897
_cell_angle_alpha   90.00000000
_cell_angle_beta   90.00000000
_cell_angle_gamma   120.00000000
_symmetry_Int_Tables_number   1
_chemical_formula_structural   LiF
_chemical_formula_sum   'Li42 F42'
_cell_volume   1082.94606691
_cell_formula_units_Z   42
loop_
 _symmetry_equiv_pos_site_id
 _symmetry_equiv_pos_as_xyz
  1  'x, y, z'
loop_
 _atom_site_type_symbol
 _atom_site_label
 _atom_site_symmetry_multiplicity
 _atom_site_fract_x
 _atom_site_fract_y
 _atom_site_fract_z
 _atom_site_occupancy
  F  F0  1  0.19456332  0.52528059  0.79107328  1
  F  F1  1  0.47471941  0.66928273  0.79107328  1
  F  F2  1  0.33071727  0.80543668  0.79107328  1
  F  F3  1  0.52528059  0.19456332  0.70892672  1
  F  F4  1  0.66928273  0.47471941  0.70892672  1
  F  F5  1  0.80543668  0.33071727  0.70892672  1
  F  F6  1  0.80543668  0.47471941  0.20892672  1
  F  F7  1  0.52528059  0.33071727  0.20892672  1
  F  F8  1  0.66928273  0.19456332  0.20892672  1
  F  F9  1  0.47471941  0.80543668  0.29107328  1
  F  F10  1  0.33071727  0.52528059  0.29107328  1
  F  F11  1  0.19456332  0.66928273  0.29107328  1
  F  F12  1  0.86122999  0.85861392  0.12440662  1
  F  F13  1  0.14138608  0.00261607  0.12440662  1
  F  F14  1  0.99738393  0.13877001  0.12440662  1
  F  F15  1  0.19194725  0.52789666  0.04226005  1
  F  F16  1  0.33594940  0.80805275  0.04226005  1
  F  F17  1  0.47210334  0.66405060  0.04226005  1
  F  F18  1  0.47210334  0.80805275  0.54226005  1
  F  F19  1  0.19194725  0.66405060  0.54226005  1
  F  F20  1  0.33594940  0.52789666  0.54226005  1
  F  F21  1  0.14138608  0.13877001  0.62440662  1
  F  F22  1  0.99738393  0.85861392  0.62440662  1
  F  F23  1  0.86122999  0.00261607  0.62440662  1
  F  F24  1  0.52789666  0.19194725  0.45773995  1
  F  F25  1  0.80805275  0.33594940  0.45773995  1
  F  F26  1  0.66405060  0.47210334  0.45773995  1
  F  F27  1  0.85861392  0.86122999  0.37559338  1
  F  F28  1  0.00261607  0.14138608  0.37559338  1
  F  F29  1  0.13877001  0.99738393  0.37559338  1
  F  F30  1  0.13877001  0.14138608  0.87559338  1
  F  F31  1  0.85861392  0.99738393  0.87559338  1
  F  F32  1  0.00261607  0.86122999  0.87559338  1
  F  F33  1  0.80805275  0.47210334  0.95773995  1
  F  F34  1  0.66405060  0.19194725  0.95773995  1
  F  F35  1  0.52789666  0.33594940  0.95773995  1
  F  F36  1  0.00000000  0.00000000  0.00000000  1
  F  F37  1  0.00000000  0.00000000  0.50000000  1
  F  F38  1  0.66666667  0.33333333  0.33333333  1
  F  F39  1  0.66666667  0.33333333  0.83333333  1
  F  F40  1  0.33333333  0.66666667  0.66666667  1
  F  F41  1  0.33333333  0.66666667  0.16666667  1
  Li  Li42  1  0.09702973  0.74303860  0.26748814  1
  Li  Li43  1  -0.74303860  -0.64600887  0.26748814  1
  Li  Li44  1  0.64600887  -0.09702973  0.26748814  1
  Li  Li45  1  0.74303860  0.09702973  0.23251186  1
  Li  Li46  1  -0.64600887  -0.74303860  0.23251186  1
  Li  Li47  1  -0.09702973  0.64600887  0.23251186  1
  Li  Li48  1  -0.09702973  -0.74303860  -0.26748814  1
  Li  Li49  1  0.74303860  0.64600887  -0.26748814  1
  Li  Li50  1  -0.64600887  0.09702973  -0.26748814  1
  Li  Li51  1  -0.74303860  -0.09702973  0.76748814  1
  Li  Li52  1  0.64600887  0.74303860  0.76748814  1
  Li  Li53  1  0.09702973  -0.64600887  0.76748814  1
  Li  Li54  1  0.76369640  1.07637193  0.60082147  1
  Li  Li55  1  -0.07637193  -0.31267553  0.60082147  1
  Li  Li56  1  1.31267553  0.23630360  0.60082147  1
  Li  Li57  1  1.40970526  0.43036306  0.56584519  1
  Li  Li58  1  0.02065780  -0.40970526  0.56584519  1
  Li  Li59  1  0.56963694  0.97934220  0.56584519  1
  Li  Li60  1  0.56963694  -0.40970526  0.06584519  1
  Li  Li61  1  1.40970526  0.97934220  0.06584519  1
  Li  Li62  1  0.02065780  0.43036306  0.06584519  1
  Li  Li63  1  -0.07637193  0.23630360  1.10082147  1
  Li  Li64  1  1.31267553  1.07637193  1.10082147  1
  Li  Li65  1  0.76369640  -0.31267553  1.10082147  1
  Li  Li66  1  0.43036306  1.40970526  0.93415481  1
  Li  Li67  1  -0.40970526  0.02065780  0.93415481  1
  Li  Li68  1  0.97934220  0.56963694  0.93415481  1
  Li  Li69  1  1.07637193  0.76369640  0.89917853  1
  Li  Li70  1  -0.31267553  -0.07637193  0.89917853  1
  Li  Li71  1  0.23630360  1.31267553  0.89917853  1
  Li  Li72  1  0.23630360  -0.07637193  0.39917853  1
  Li  Li73  1  1.07637193  1.31267553  0.39917853  1
  Li  Li74  1  -0.31267553  0.76369640  0.39917853  1
  Li  Li75  1  -0.40970526  0.56963694  1.43415481  1
  Li  Li76  1  0.97934220  1.40970526  1.43415481  1
  Li  Li77  1  0.43036306  0.02065780  1.43415481  1
  Li  Li78  1  0.00000000  0.00000000  0.25000000  1
  Li  Li79  1  0.00000000  0.00000000  0.75000000  1
  Li  Li80  1  0.66666667  0.33333333  0.58333333  1
  Li  Li81  1  0.66666667  0.33333333  0.08333333  1
  Li  Li82  1  0.33333333  0.66666667  0.91666667  1
  Li  Li83  1  0.33333333  0.66666667  0.41666667  1
