# generated using pymatgen
data_LiY2Cu3P2Se
_symmetry_space_group_name_H-M   'P 1'
_cell_length_a   4.57681372
_cell_length_b   4.70270176
_cell_length_c   6.43653275
_cell_angle_alpha   95.40603675
_cell_angle_beta   100.35088432
_cell_angle_gamma   108.29014894
_symmetry_Int_Tables_number   1
_chemical_formula_structural   LiY2Cu3P2Se
_chemical_formula_sum   'Li1 Y2 Cu3 P2 Se1'
_cell_volume   127.70335368
_cell_formula_units_Z   1
loop_
 _symmetry_equiv_pos_site_id
 _symmetry_equiv_pos_as_xyz
  1  'x, y, z'
loop_
 _atom_site_type_symbol
 _atom_site_label
 _atom_site_symmetry_multiplicity
 _atom_site_fract_x
 _atom_site_fract_y
 _atom_site_fract_z
 _atom_site_occupancy
  Y  Y0  1  0.00000000  0.00000000  0.00000000  1
  Y  Y1  1  0.50000000  0.50000000  0.50000000  1
  P  P2  1  0.50000000  0.50000000  0.00000000  1
  P  P3  1  0.50000000  0.00000000  0.50000000  1
  Se  Se4  1  0.00000000  0.50000000  0.50000000  1
  Li  Li5  1  0.30286572  0.43177009  0.99117954  1
  Cu  Cu6  1  0.71676384  0.83240392  0.33068037  1
  Cu  Cu7  1  0.24429947  0.34531703  0.74107790  1
  Cu  Cu8  1  0.79755540  0.23230772  0.87879063  1
