# generated using pymatgen
data_Li2Y2P3
_symmetry_space_group_name_H-M   'P 1'
_cell_length_a   4.53130859
_cell_length_b   4.66662102
_cell_length_c   6.82652758
_cell_angle_alpha   95.54489578
_cell_angle_beta   102.07563024
_cell_angle_gamma   112.27164256
_symmetry_Int_Tables_number   1
_chemical_formula_structural   Li2Y2P3
_chemical_formula_sum   'Li2 Y2 P3'
_cell_volume   128.13607171
_cell_formula_units_Z   1
loop_
 _symmetry_equiv_pos_site_id
 _symmetry_equiv_pos_as_xyz
  1  'x, y, z'
loop_
 _atom_site_type_symbol
 _atom_site_label
 _atom_site_symmetry_multiplicity
 _atom_site_fract_x
 _atom_site_fract_y
 _atom_site_fract_z
 _atom_site_occupancy
  P  P0  1  0.00000000  0.00000000  0.00000000  1
  P  P1  1  0.50000000  0.50000000  0.50000000  1
  P  P2  1  0.50000000  0.50000000  0.00000000  1
  Li  Li3  1  0.50000000  0.00000000  0.50000000  1
  Li  Li4  1  0.00000000  0.50000000  0.50000000  1
  Y  Y5  1  0.95914708  0.44205863  0.36033076  1
  Y  Y6  1  0.77170533  0.55334590  0.30704844  1
