# generated using pymatgen
data_LiF
_symmetry_space_group_name_H-M   'P 1'
_cell_length_a   6.03647888
_cell_length_b   6.03647888
_cell_length_c   28.22719822
_cell_angle_alpha   90.00000000
_cell_angle_beta   90.00000000
_cell_angle_gamma   90.00000000
_symmetry_Int_Tables_number   1
_chemical_formula_structural   LiF
_chemical_formula_sum   'Li36 F36'
_cell_volume   1028.57305691
_cell_formula_units_Z   36
loop_
 _symmetry_equiv_pos_site_id
 _symmetry_equiv_pos_as_xyz
  1  'x, y, z'
loop_
 _atom_site_type_symbol
 _atom_site_label
 _atom_site_symmetry_multiplicity
 _atom_site_fract_x
 _atom_site_fract_y
 _atom_site_fract_z
 _atom_site_occupancy
  F  F0  1  0.00000000  0.25000000  0.84081255  1
  F  F1  1  0.00000000  0.75000000  0.09081255  1
  F  F2  1  0.50000000  0.25000000  0.65918745  1
  F  F3  1  0.50000000  0.75000000  0.40918745  1
  F  F4  1  0.50000000  0.75000000  0.34081255  1
  F  F5  1  0.50000000  0.25000000  0.59081255  1
  F  F6  1  0.00000000  0.75000000  0.15918745  1
  F  F7  1  0.00000000  0.25000000  0.90918745  1
  F  F8  1  0.00000000  0.57254224  0.67542848  1
  F  F9  1  0.50000000  0.42745776  0.17542848  1
  F  F10  1  0.67745776  0.75000000  0.92542848  1
  F  F11  1  0.82254224  0.25000000  0.42542848  1
  F  F12  1  0.50000000  0.57254224  0.82457152  1
  F  F13  1  0.00000000  0.42745776  0.32457152  1
  F  F14  1  0.82254224  0.75000000  0.57457152  1
  F  F15  1  0.67745776  0.25000000  0.07457152  1
  F  F16  1  0.50000000  0.07254224  0.17542848  1
  F  F17  1  0.00000000  0.92745776  0.67542848  1
  F  F18  1  0.17745776  0.25000000  0.42542848  1
  F  F19  1  0.32254224  0.75000000  0.92542848  1
  F  F20  1  0.00000000  0.07254224  0.32457152  1
  F  F21  1  0.50000000  0.92745776  0.82457152  1
  F  F22  1  0.32254224  0.25000000  0.07457152  1
  F  F23  1  0.17745776  0.75000000  0.57457152  1
  F  F24  1  0.00000000  0.00000000  0.50000000  1
  F  F25  1  0.50000000  0.00000000  0.00000000  1
  F  F26  1  0.25000000  0.75000000  0.75000000  1
  F  F27  1  0.25000000  0.25000000  0.25000000  1
  F  F28  1  0.50000000  0.50000000  0.00000000  1
  F  F29  1  0.00000000  0.50000000  0.50000000  1
  F  F30  1  0.75000000  0.25000000  0.25000000  1
  F  F31  1  0.75000000  0.75000000  0.75000000  1
  F  F32  1  0.00000000  0.25000000  0.37500000  1
  F  F33  1  0.00000000  0.75000000  0.62500000  1
  F  F34  1  0.50000000  0.75000000  0.87500000  1
  F  F35  1  0.50000000  0.25000000  0.12500000  1
  Li  Li36  1  0.62238057  0.03762692  0.54468910  1
  Li  Li37  1  -0.12238057  -0.03762692  1.04468910  1
  Li  Li38  1  0.21237308  1.37238057  0.79468910  1
  Li  Li39  1  0.28762692  -0.37238057  1.29468910  1
  Li  Li40  1  -0.12238057  0.03762692  -0.04468910  1
  Li  Li41  1  0.62238057  -0.03762692  -0.54468910  1
  Li  Li42  1  0.28762692  1.37238057  -0.29468910  1
  Li  Li43  1  0.21237308  -0.37238057  0.20531090  1
  Li  Li44  1  -0.62238057  -0.03762692  -0.54468910  1
  Li  Li45  1  1.12238057  0.03762692  -0.04468910  1
  Li  Li46  1  0.78762692  -0.37238057  0.20531090  1
  Li  Li47  1  0.71237308  1.37238057  -0.29468910  1
  Li  Li48  1  1.12238057  -0.03762692  1.04468910  1
  Li  Li49  1  -0.62238057  0.03762692  0.54468910  1
  Li  Li50  1  0.71237308  -0.37238057  1.29468910  1
  Li  Li51  1  0.78762692  1.37238057  0.79468910  1
  Li  Li52  1  1.12238057  0.53762692  1.04468910  1
  Li  Li53  1  0.37761943  0.46237308  1.54468910  1
  Li  Li54  1  0.71237308  1.87238057  1.29468910  1
  Li  Li55  1  0.78762692  0.12761943  1.79468910  1
  Li  Li56  1  0.37761943  0.53762692  0.45531090  1
  Li  Li57  1  1.12238057  0.46237308  -0.04468910  1
  Li  Li58  1  0.78762692  1.87238057  0.20531090  1
  Li  Li59  1  0.71237308  0.12761943  0.70531090  1
  Li  Li60  1  -0.12238057  0.46237308  -0.04468910  1
  Li  Li61  1  1.62238057  0.53762692  0.45531090  1
  Li  Li62  1  1.28762692  0.12761943  0.70531090  1
  Li  Li63  1  1.21237308  1.87238057  0.20531090  1
  Li  Li64  1  1.62238057  0.46237308  1.54468910  1
  Li  Li65  1  -0.12238057  0.53762692  1.04468910  1
  Li  Li66  1  1.21237308  0.12761943  1.79468910  1
  Li  Li67  1  1.28762692  1.87238057  1.29468910  1
  Li  Li68  1  0.00000000  0.75000000  0.12500000  1
  Li  Li69  1  0.50000000  0.75000000  0.37500000  1
  Li  Li70  1  0.50000000  0.25000000  0.62500000  1
  Li  Li71  1  0.00000000  0.25000000  0.87500000  1
