# generated using pymatgen
data_LiF
_symmetry_space_group_name_H-M   'P 1'
_cell_length_a   9.16309534
_cell_length_b   6.31587654
_cell_length_c   10.60856096
_cell_angle_alpha   90.00000000
_cell_angle_beta   90.00000000
_cell_angle_gamma   90.00000000
_symmetry_Int_Tables_number   1
_chemical_formula_structural   LiF
_chemical_formula_sum   'Li38 F38'
_cell_volume   613.94902406
_cell_formula_units_Z   38
loop_
 _symmetry_equiv_pos_site_id
 _symmetry_equiv_pos_as_xyz
  1  'x, y, z'
loop_
 _atom_site_type_symbol
 _atom_site_label
 _atom_site_symmetry_multiplicity
 _atom_site_fract_x
 _atom_site_fract_y
 _atom_site_fract_z
 _atom_site_occupancy
  F  F0  1  0.00000000  0.00000000  0.50000000  1
  F  F1  1  0.50000000  0.50000000  0.50000000  1
  F  F2  1  0.00000000  0.00000000  0.57708294  1
  F  F3  1  0.50000000  0.50000000  0.42291706  1
  F  F4  1  0.00000000  0.00000000  0.42291706  1
  F  F5  1  0.50000000  0.50000000  0.57708294  1
  F  F6  1  0.43903149  0.53784595  0.65833070  1
  F  F7  1  0.56096851  0.46215405  0.65833070  1
  F  F8  1  0.06096851  0.03784595  0.34166930  1
  F  F9  1  0.93903149  0.96215405  0.34166930  1
  F  F10  1  0.56096851  0.46215405  0.34166930  1
  F  F11  1  0.43903149  0.53784595  0.34166930  1
  F  F12  1  0.93903149  0.96215405  0.65833070  1
  F  F13  1  0.06096851  0.03784595  0.65833070  1
  F  F14  1  0.00000000  0.00000000  0.68846769  1
  F  F15  1  0.50000000  0.50000000  0.31153231  1
  F  F16  1  0.00000000  0.00000000  0.31153231  1
  F  F17  1  0.50000000  0.50000000  0.68846769  1
  F  F18  1  0.06036298  0.98681846  0.44857204  1
  F  F19  1  0.93963702  0.01318154  0.44857204  1
  F  F20  1  0.43963702  0.48681846  0.55142796  1
  F  F21  1  0.56036298  0.51318154  0.55142796  1
  F  F22  1  0.93963702  0.01318154  0.55142796  1
  F  F23  1  0.06036298  0.98681846  0.55142796  1
  F  F24  1  0.56036298  0.51318154  0.44857204  1
  F  F25  1  0.43963702  0.48681846  0.44857204  1
  F  F26  1  0.80318087  0.48516273  0.38232797  1
  F  F27  1  0.19681913  0.51483727  0.38232797  1
  F  F28  1  0.69681913  0.98516273  0.61767203  1
  F  F29  1  0.30318087  0.01483727  0.61767203  1
  F  F30  1  0.19681913  0.51483727  0.61767203  1
  F  F31  1  0.80318087  0.48516273  0.61767203  1
  F  F32  1  0.30318087  0.01483727  0.38232797  1
  F  F33  1  0.69681913  0.98516273  0.38232797  1
  F  F34  1  0.65365576  0.08570796  -0.00000000  1
  F  F35  1  0.34634424  0.91429204  -0.00000000  1
  F  F36  1  0.84634424  0.58570796  0.00000000  1
  F  F37  1  0.15365576  0.41429204  0.00000000  1
  Li  Li38  1  0.00000000  0.50000000  0.50000000  1
  Li  Li39  1  0.50000000  0.00000000  0.50000000  1
  Li  Li40  1  0.70107130  0.43942478  0.00000000  1
  Li  Li41  1  0.29892870  0.56057522  0.00000000  1
  Li  Li42  1  0.79892870  0.93942478  0.00000000  1
  Li  Li43  1  0.20107130  0.06057522  0.00000000  1
  Li  Li44  1  0.68220963  0.74145789  0.00000000  1
  Li  Li45  1  0.31779037  0.25854211  0.00000000  1
  Li  Li46  1  0.81779037  0.24145789  0.00000000  1
  Li  Li47  1  0.18220963  0.75854211  0.00000000  1
  Li  Li48  1  0.00000000  0.50000000  0.75752455  1
  Li  Li49  1  0.50000000  0.00000000  0.24247545  1
  Li  Li50  1  0.00000000  0.50000000  0.24247545  1
  Li  Li51  1  0.50000000  0.00000000  0.75752455  1
  Li  Li52  1  0.28646412  0.12117254  0.28886439  1
  Li  Li53  1  -0.28646412  -0.12117254  0.28886439  1
  Li  Li54  1  0.21353588  0.62117254  -0.28886439  1
  Li  Li55  1  0.78646412  0.37882746  -0.28886439  1
  Li  Li56  1  -0.28646412  -0.12117254  -0.28886439  1
  Li  Li57  1  0.28646412  0.12117254  -0.28886439  1
  Li  Li58  1  0.78646412  0.37882746  0.28886439  1
  Li  Li59  1  0.21353588  0.62117254  0.28886439  1
  Li  Li60  1  0.65469336  0.06463238  0.79864762  1
  Li  Li61  1  0.34530664  0.93536762  0.79864762  1
  Li  Li62  1  0.84530664  0.56463238  0.20135238  1
  Li  Li63  1  0.15469336  0.43536762  0.20135238  1
  Li  Li64  1  0.34530664  0.93536762  0.20135238  1
  Li  Li65  1  0.65469336  0.06463238  0.20135238  1
  Li  Li66  1  0.15469336  0.43536762  0.79864762  1
  Li  Li67  1  0.84530664  0.56463238  0.79864762  1
  Li  Li68  1  0.00000000  0.00000000  0.00000000  1
  Li  Li69  1  0.50000000  0.50000000  0.00000000  1
  Li  Li70  1  0.00000000  0.50000000  0.00000000  1
  Li  Li71  1  0.50000000  0.00000000  0.00000000  1
  Li  Li72  1  0.91645695  0.81950338  0.00000000  1
  Li  Li73  1  0.08354305  0.18049662  0.00000000  1
  Li  Li74  1  0.58354305  0.31950338  -0.00000000  1
  Li  Li75  1  0.41645695  0.68049662  0.00000000  1
