# generated using pymatgen
data_LiF
_symmetry_space_group_name_H-M   'P 1'
_cell_length_a   12.90545798
_cell_length_b   12.90545798
_cell_length_c   7.73053955
_cell_angle_alpha   90.00000000
_cell_angle_beta   90.00000000
_cell_angle_gamma   90.00000000
_symmetry_Int_Tables_number   1
_chemical_formula_structural   LiF
_chemical_formula_sum   'Li64 F64'
_cell_volume   1287.52789996
_cell_formula_units_Z   64
loop_
 _symmetry_equiv_pos_site_id
 _symmetry_equiv_pos_as_xyz
  1  'x, y, z'
loop_
 _atom_site_type_symbol
 _atom_site_label
 _atom_site_symmetry_multiplicity
 _atom_site_fract_x
 _atom_site_fract_y
 _atom_site_fract_z
 _atom_site_occupancy
  F  F0  1  0.83504210  0.61860280  0.29240917  1
  F  F1  1  -0.33504210  -0.61860280  0.79240917  1
  F  F2  1  -0.36860280  1.58504210  0.54240917  1
  F  F3  1  0.86860280  -0.58504210  1.04240917  1
  F  F4  1  -0.33504210  0.61860280  -0.29240917  1
  F  F5  1  0.83504210  -0.61860280  0.20759083  1
  F  F6  1  0.86860280  1.58504210  0.45759083  1
  F  F7  1  -0.36860280  -0.58504210  -0.04240917  1
  F  F8  1  -0.83504210  -0.61860280  -0.29240917  1
  F  F9  1  1.33504210  0.61860280  0.20759083  1
  F  F10  1  1.36860280  -0.58504210  0.45759083  1
  F  F11  1  0.13139720  1.58504210  -0.04240917  1
  F  F12  1  1.33504210  -0.61860280  0.29240917  1
  F  F13  1  -0.83504210  0.61860280  0.79240917  1
  F  F14  1  0.13139720  -0.58504210  0.54240917  1
  F  F15  1  1.36860280  1.58504210  1.04240917  1
  F  F16  1  1.33504210  1.11860280  0.79240917  1
  F  F17  1  0.16495790  -0.11860280  1.29240917  1
  F  F18  1  0.13139720  2.08504210  1.04240917  1
  F  F19  1  1.36860280  -0.08504210  1.54240917  1
  F  F20  1  0.16495790  1.11860280  0.20759083  1
  F  F21  1  1.33504210  -0.11860280  0.70759083  1
  F  F22  1  1.36860280  2.08504210  0.95759083  1
  F  F23  1  0.13139720  -0.08504210  0.45759083  1
  F  F24  1  -0.33504210  -0.11860280  0.20759083  1
  F  F25  1  1.83504210  1.11860280  0.70759083  1
  F  F26  1  1.86860280  -0.08504210  0.95759083  1
  F  F27  1  0.63139720  2.08504210  0.45759083  1
  F  F28  1  1.83504210  -0.11860280  0.79240917  1
  F  F29  1  -0.33504210  1.11860280  1.29240917  1
  F  F30  1  0.63139720  -0.08504210  1.04240917  1
  F  F31  1  1.86860280  2.08504210  1.54240917  1
  F  F32  1  0.96226580  0.96720916  0.68965236  1
  F  F33  1  0.53773420  0.03279084  0.18965236  1
  F  F34  1  0.28279084  0.71226580  0.93965236  1
  F  F35  1  0.21720916  0.28773420  0.43965236  1
  F  F36  1  0.53773420  0.96720916  0.31034764  1
  F  F37  1  0.96226580  0.03279084  0.81034764  1
  F  F38  1  0.21720916  0.71226580  0.06034764  1
  F  F39  1  0.28279084  0.28773420  0.56034764  1
  F  F40  1  0.03773420  0.03279084  0.31034764  1
  F  F41  1  0.46226580  0.96720916  0.81034764  1
  F  F42  1  0.71720916  0.28773420  0.06034764  1
  F  F43  1  0.78279084  0.71226580  0.56034764  1
  F  F44  1  0.46226580  0.03279084  0.68965236  1
  F  F45  1  0.03773420  0.96720916  0.18965236  1
  F  F46  1  0.78279084  0.28773420  0.93965236  1
  F  F47  1  0.71720916  0.71226580  0.43965236  1
  F  F48  1  0.46226580  0.46720916  0.18965236  1
  F  F49  1  0.03773420  0.53279084  0.68965236  1
  F  F50  1  0.78279084  0.21226580  0.43965236  1
  F  F51  1  0.71720916  0.78773420  0.93965236  1
  F  F52  1  0.03773420  0.46720916  0.81034764  1
  F  F53  1  0.46226580  0.53279084  0.31034764  1
  F  F54  1  0.71720916  0.21226580  0.56034764  1
  F  F55  1  0.78279084  0.78773420  0.06034764  1
  F  F56  1  0.53773420  0.53279084  0.81034764  1
  F  F57  1  0.96226580  0.46720916  0.31034764  1
  F  F58  1  0.21720916  0.78773420  0.56034764  1
  F  F59  1  0.28279084  0.21226580  0.06034764  1
  F  F60  1  0.96226580  0.53279084  0.18965236  1
  F  F61  1  0.53773420  0.46720916  0.68965236  1
  F  F62  1  0.28279084  0.78773420  0.43965236  1
  F  F63  1  0.21720916  0.21226580  0.93965236  1
  Li  Li64  1  0.92531451  0.97082827  0.98555013  1
  Li  Li65  1  0.57468549  0.02917173  0.48555013  1
  Li  Li66  1  0.27917173  0.67531451  0.23555013  1
  Li  Li67  1  0.22082827  0.32468549  0.73555013  1
  Li  Li68  1  0.57468549  0.97082827  0.01444987  1
  Li  Li69  1  0.92531451  0.02917173  0.51444987  1
  Li  Li70  1  0.22082827  0.67531451  0.76444987  1
  Li  Li71  1  0.27917173  0.32468549  0.26444987  1
  Li  Li72  1  0.07468549  0.02917173  0.01444987  1
  Li  Li73  1  0.42531451  0.97082827  0.51444987  1
  Li  Li74  1  0.72082827  0.32468549  0.76444987  1
  Li  Li75  1  0.77917173  0.67531451  0.26444987  1
  Li  Li76  1  0.42531451  0.02917173  0.98555013  1
  Li  Li77  1  0.07468549  0.97082827  0.48555013  1
  Li  Li78  1  0.77917173  0.32468549  0.23555013  1
  Li  Li79  1  0.72082827  0.67531451  0.73555013  1
  Li  Li80  1  0.42531451  0.47082827  0.48555013  1
  Li  Li81  1  0.07468549  0.52917173  0.98555013  1
  Li  Li82  1  0.77917173  0.17531451  0.73555013  1
  Li  Li83  1  0.72082827  0.82468549  0.23555013  1
  Li  Li84  1  0.07468549  0.47082827  0.51444987  1
  Li  Li85  1  0.42531451  0.52917173  0.01444987  1
  Li  Li86  1  0.72082827  0.17531451  0.26444987  1
  Li  Li87  1  0.77917173  0.82468549  0.76444987  1
  Li  Li88  1  0.57468549  0.52917173  0.51444987  1
  Li  Li89  1  0.92531451  0.47082827  0.01444987  1
  Li  Li90  1  0.22082827  0.82468549  0.26444987  1
  Li  Li91  1  0.27917173  0.17531451  0.76444987  1
  Li  Li92  1  0.92531451  0.52917173  0.48555013  1
  Li  Li93  1  0.57468549  0.47082827  0.98555013  1
  Li  Li94  1  0.27917173  0.82468549  0.73555013  1
  Li  Li95  1  0.22082827  0.17531451  0.23555013  1
  Li  Li96  1  0.68978249  0.57820396  0.45261080  1
  Li  Li97  1  0.81021751  0.42179604  0.95261080  1
  Li  Li98  1  0.67179604  0.43978249  0.70261080  1
  Li  Li99  1  0.82820396  0.56021751  0.20261080  1
  Li  Li100  1  0.81021751  0.57820396  0.54738920  1
  Li  Li101  1  0.68978249  0.42179604  0.04738920  1
  Li  Li102  1  0.82820396  0.43978249  0.29738920  1
  Li  Li103  1  0.67179604  0.56021751  0.79738920  1
  Li  Li104  1  0.31021751  0.42179604  0.54738920  1
  Li  Li105  1  0.18978249  0.57820396  0.04738920  1
  Li  Li106  1  0.32820396  0.56021751  0.29738920  1
  Li  Li107  1  0.17179604  0.43978249  0.79738920  1
  Li  Li108  1  0.18978249  0.42179604  0.45261080  1
  Li  Li109  1  0.31021751  0.57820396  0.95261080  1
  Li  Li110  1  0.17179604  0.56021751  0.70261080  1
  Li  Li111  1  0.32820396  0.43978249  0.20261080  1
  Li  Li112  1  0.18978249  0.07820396  0.95261080  1
  Li  Li113  1  0.31021751  0.92179604  0.45261080  1
  Li  Li114  1  0.17179604  0.93978249  0.20261080  1
  Li  Li115  1  0.32820396  0.06021751  0.70261080  1
  Li  Li116  1  0.31021751  0.07820396  0.04738920  1
  Li  Li117  1  0.18978249  0.92179604  0.54738920  1
  Li  Li118  1  0.32820396  0.93978249  0.79738920  1
  Li  Li119  1  0.17179604  0.06021751  0.29738920  1
  Li  Li120  1  0.81021751  0.92179604  0.04738920  1
  Li  Li121  1  0.68978249  0.07820396  0.54738920  1
  Li  Li122  1  0.82820396  0.06021751  0.79738920  1
  Li  Li123  1  0.67179604  0.93978249  0.29738920  1
  Li  Li124  1  0.68978249  0.92179604  0.95261080  1
  Li  Li125  1  0.81021751  0.07820396  0.45261080  1
  Li  Li126  1  0.67179604  0.06021751  0.20261080  1
  Li  Li127  1  0.82820396  0.93978249  0.70261080  1
