# generated using pymatgen
data_LiCaF3
_symmetry_space_group_name_H-M   'P 1'
_cell_length_a   8.06537536
_cell_length_b   8.06537536
_cell_length_c   15.62414060
_cell_angle_alpha   90.00000000
_cell_angle_beta   90.00000000
_cell_angle_gamma   120.00000000
_symmetry_Int_Tables_number   1
_chemical_formula_structural   LiCaF3
_chemical_formula_sum   'Li18 Ca18 F54'
_cell_volume   880.18900341
_cell_formula_units_Z   18
loop_
 _symmetry_equiv_pos_site_id
 _symmetry_equiv_pos_as_xyz
  1  'x, y, z'
loop_
 _atom_site_type_symbol
 _atom_site_label
 _atom_site_symmetry_multiplicity
 _atom_site_fract_x
 _atom_site_fract_y
 _atom_site_fract_z
 _atom_site_occupancy
  Ca  Ca0  1  0.43470825  0.43648693  0.42189891  1
  Ca  Ca1  1  -0.43648693  -0.00177867  0.42189891  1
  Ca  Ca2  1  0.00177867  -0.43470825  0.42189891  1
  Ca  Ca3  1  -0.43648693  -0.43470825  -0.42189891  1
  Ca  Ca4  1  0.00177867  0.43648693  -0.42189891  1
  Ca  Ca5  1  0.43470825  -0.00177867  -0.42189891  1
  Ca  Ca6  1  0.00000000  0.00000000  0.50000000  1
  Ca  Ca7  1  0.76040326  0.47775172  0.88253791  1
  Ca  Ca8  1  0.52224828  0.28265154  0.88253791  1
  Ca  Ca9  1  0.71734846  0.23959674  0.88253791  1
  Ca  Ca10  1  0.52224828  0.23959674  0.11746209  1
  Ca  Ca11  1  0.71734846  0.47775172  0.11746209  1
  Ca  Ca12  1  0.76040326  0.28265154  0.11746209  1
  Ca  Ca13  1  0.00000000  0.00000000  0.00000000  1
  Ca  Ca14  1  0.33333333  0.66666667  0.50000000  1
  Ca  Ca15  1  0.33333333  0.66666667  0.00000000  1
  Ca  Ca16  1  0.33333333  0.66666667  0.16162388  1
  Ca  Ca17  1  0.33333333  0.66666667  0.83837612  1
  F  F18  1  0.93805595  0.62601662  0.92643414  1
  F  F19  1  0.37398338  0.31203933  0.92643414  1
  F  F20  1  0.68796067  0.06194405  0.92643414  1
  F  F21  1  0.37398338  0.06194405  0.07356586  1
  F  F22  1  0.68796067  0.62601662  0.07356586  1
  F  F23  1  0.93805595  0.31203933  0.07356586  1
  F  F24  1  0.41761443  0.93637457  0.18197991  1
  F  F25  1  0.06362543  0.48123986  0.18197991  1
  F  F26  1  0.51876014  0.58238557  0.18197991  1
  F  F27  1  0.06362543  0.58238557  0.81802009  1
  F  F28  1  0.51876014  0.93637457  0.81802009  1
  F  F29  1  0.41761443  0.48123986  0.81802009  1
  F  F30  1  0.83738037  0.86107064  0.74846299  1
  F  F31  1  0.13892936  0.97630973  0.74846299  1
  F  F32  1  0.02369027  0.16261963  0.74846299  1
  F  F33  1  0.13892936  0.16261963  0.25153701  1
  F  F34  1  0.02369027  0.86107064  0.25153701  1
  F  F35  1  0.83738037  0.97630973  0.25153701  1
  F  F36  1  0.52791324  0.52471204  0.05284412  1
  F  F37  1  0.47528796  0.00320120  0.05284412  1
  F  F38  1  0.99679880  0.47208676  0.05284412  1
  F  F39  1  0.47528796  0.47208676  0.94715588  1
  F  F40  1  0.99679880  0.52471204  0.94715588  1
  F  F41  1  0.52791324  0.00320120  0.94715588  1
  F  F42  1  0.15151789  0.69288479  0.71468897  1
  F  F43  1  0.30711521  0.45863310  0.71468897  1
  F  F44  1  0.54136690  0.84848211  0.71468897  1
  F  F45  1  0.30711521  0.84848211  0.28531103  1
  F  F46  1  0.54136690  0.69288479  0.28531103  1
  F  F47  1  0.15151789  0.45863310  0.28531103  1
  F  F48  1  0.66666667  0.33333333  0.50000000  1
  F  F49  1  0.10754084  0.89075180  0.80336636  1
  F  F50  1  0.10924820  0.21678903  0.80336636  1
  F  F51  1  0.78321097  0.89245916  0.80336636  1
  F  F52  1  0.10924820  0.89245916  0.19663364  1
  F  F53  1  0.78321097  0.89075180  0.19663364  1
  F  F54  1  0.10754084  0.21678903  0.19663364  1
  F  F55  1  0.00000000  0.00000000  0.27894510  1
  F  F56  1  0.00000000  0.00000000  0.72105490  1
  F  F57  1  0.23051235  0.69943952  0.70210329  1
  F  F58  1  0.30056048  0.53107283  0.70210329  1
  F  F59  1  0.46892717  0.76948765  0.70210329  1
  F  F60  1  0.30056048  0.76948765  0.29789671  1
  F  F61  1  0.46892717  0.69943952  0.29789671  1
  F  F62  1  0.23051235  0.53107283  0.29789671  1
  F  F63  1  0.42320980  0.07033877  0.83963635  1
  F  F64  1  0.92966123  0.35287103  0.83963635  1
  F  F65  1  0.64712897  0.57679020  0.83963635  1
  F  F66  1  0.92966123  0.57679020  0.16036365  1
  F  F67  1  0.64712897  0.07033877  0.16036365  1
  F  F68  1  0.42320980  0.35287103  0.16036365  1
  F  F69  1  0.66666667  0.33333333  0.00000000  1
  F  F70  1  0.66666667  0.33333333  0.75242799  1
  F  F71  1  0.66666667  0.33333333  0.24757201  1
  Li  Li72  1  0.43692535  0.67031233  0.59773833  1
  Li  Li73  1  0.32968767  0.76661301  0.59773833  1
  Li  Li74  1  0.23338699  0.56307465  0.59773833  1
  Li  Li75  1  0.32968767  0.56307465  0.40226167  1
  Li  Li76  1  0.23338699  0.67031233  0.40226167  1
  Li  Li77  1  0.43692535  0.76661301  0.40226167  1
  Li  Li78  1  0.25260455  0.29447699  0.53786799  1
  Li  Li79  1  0.70552301  0.95812756  0.53786799  1
  Li  Li80  1  0.04187244  0.74739545  0.53786799  1
  Li  Li81  1  0.70552301  0.74739545  0.46213201  1
  Li  Li82  1  0.04187244  0.29447699  0.46213201  1
  Li  Li83  1  0.25260455  0.95812756  0.46213201  1
  Li  Li84  1  0.06581078  0.70608974  0.29518005  1
  Li  Li85  1  0.29391026  0.35972104  0.29518005  1
  Li  Li86  1  0.64027896  0.93418922  0.29518005  1
  Li  Li87  1  0.29391026  0.93418922  0.70481995  1
  Li  Li88  1  0.64027896  0.70608974  0.70481995  1
  Li  Li89  1  0.06581078  0.35972104  0.70481995  1
