# generated using pymatgen
data_Li3Y2MoP3Se2
_symmetry_space_group_name_H-M   'P 1'
_cell_length_a   5.41679360
_cell_length_b   5.67111179
_cell_length_c   7.25889458
_cell_angle_alpha   93.98978795
_cell_angle_beta   98.68892870
_cell_angle_gamma   106.02539249
_symmetry_Int_Tables_number   1
_chemical_formula_structural   Li3Y2MoP3Se2
_chemical_formula_sum   'Li3 Y2 Mo1 P3 Se2'
_cell_volume   210.40428999
_cell_formula_units_Z   1
loop_
 _symmetry_equiv_pos_site_id
 _symmetry_equiv_pos_as_xyz
  1  'x, y, z'
loop_
 _atom_site_type_symbol
 _atom_site_label
 _atom_site_symmetry_multiplicity
 _atom_site_fract_x
 _atom_site_fract_y
 _atom_site_fract_z
 _atom_site_occupancy
  Se  Se0  1  0.00000000  0.00000000  0.00000000  1
  Se  Se1  1  0.50000000  0.50000000  0.50000000  1
  Y  Y2  1  0.25000000  0.25000000  0.25000000  1
  Y  Y3  1  0.75000000  0.25000000  0.00000000  1
  P  P4  1  0.25000000  0.75000000  0.50000000  1
  P  P5  1  0.87529662  0.19439302  0.82924032  1
  P  P6  1  0.90542627  0.75994995  0.65865574  1
  Mo  Mo7  1  0.19628842  0.72884700  0.64646327  1
  Li  Li8  1  0.88569011  0.45966530  0.28690359  1
  Li  Li9  1  0.50236071  0.16475299  0.22048964  1
  Li  Li10  1  0.48493510  0.45574385  0.35061411  1
