# generated using pymatgen
data_LiTe4MoP2Se
_symmetry_space_group_name_H-M   'P 1'
_cell_length_a   5.27095233
_cell_length_b   5.41575246
_cell_length_c   7.13957142
_cell_angle_alpha   93.99842443
_cell_angle_beta   98.95935289
_cell_angle_gamma   106.36389341
_symmetry_Int_Tables_number   1
_chemical_formula_structural   LiTe4MoP2Se
_chemical_formula_sum   'Li1 Te4 Mo1 P2 Se1'
_cell_volume   191.77298542
_cell_formula_units_Z   1
loop_
 _symmetry_equiv_pos_site_id
 _symmetry_equiv_pos_as_xyz
  1  'x, y, z'
loop_
 _atom_site_type_symbol
 _atom_site_label
 _atom_site_symmetry_multiplicity
 _atom_site_fract_x
 _atom_site_fract_y
 _atom_site_fract_z
 _atom_site_occupancy
  Se  Se0  1  0.12500000  0.00000000  0.25000000  1
  Te  Te1  1  0.00000000  0.00000000  0.00000000  1
  Te  Te2  1  0.37500000  0.00000000  0.25000000  1
  Te  Te3  1  0.25000000  0.25000000  0.25000000  1
  Te  Te4  1  0.00000000  0.25000000  0.12500000  1
  P  P5  1  0.55336316  0.89729010  0.21139336  1
  P  P6  1  0.81176514  0.03638218  0.04048853  1
  Mo  Mo7  1  0.76815798  0.56558512  0.49632979  1
  Li  Li8  1  0.98228705  0.39046547  0.73310941  1
