# generated using pymatgen
data_LiF
_symmetry_space_group_name_H-M   'P 1'
_cell_length_a   8.47211876
_cell_length_b   5.68523339
_cell_length_c   9.67221525
_cell_angle_alpha   90.00000000
_cell_angle_beta   90.00000000
_cell_angle_gamma   90.00000000
_symmetry_Int_Tables_number   1
_chemical_formula_structural   LiF
_chemical_formula_sum   'Li16 F16'
_cell_volume   465.87165320
_cell_formula_units_Z   16
loop_
 _symmetry_equiv_pos_site_id
 _symmetry_equiv_pos_as_xyz
  1  'x, y, z'
loop_
 _atom_site_type_symbol
 _atom_site_label
 _atom_site_symmetry_multiplicity
 _atom_site_fract_x
 _atom_site_fract_y
 _atom_site_fract_z
 _atom_site_occupancy
  F  F0  1  0.00000000  0.00000000  0.00000000  1
  F  F1  1  0.50000000  0.50000000  0.50000000  1
  F  F2  1  0.74329084  0.81591508  -0.00000000  1
  F  F3  1  0.25670916  0.18408492  0.00000000  1
  F  F4  1  0.75670916  0.31591508  0.50000000  1
  F  F5  1  0.24329084  0.68408492  0.50000000  1
  F  F6  1  0.43174933  0.88449768  0.83586845  1
  F  F7  1  -0.43174933  -0.88449768  0.83586845  1
  F  F8  1  0.06825067  1.38449768  -0.33586845  1
  F  F9  1  0.93174933  -0.38449768  -0.33586845  1
  F  F10  1  -0.43174933  -0.88449768  -0.83586845  1
  F  F11  1  0.43174933  0.88449768  -0.83586845  1
  F  F12  1  0.93174933  -0.38449768  1.33586845  1
  F  F13  1  0.06825067  1.38449768  1.33586845  1
  F  F14  1  0.00000000  0.50000000  0.50000000  1
  F  F15  1  0.50000000  0.00000000  -0.00000000  1
  Li  Li16  1  0.59280956  0.56305519  0.09381050  1
  Li  Li17  1  0.40719044  0.43694481  0.09381050  1
  Li  Li18  1  0.90719044  0.06305519  0.40618950  1
  Li  Li19  1  0.09280956  0.93694481  0.40618950  1
  Li  Li20  1  0.40719044  0.43694481  0.90618950  1
  Li  Li21  1  0.59280956  0.56305519  0.90618950  1
  Li  Li22  1  0.09280956  0.93694481  0.59381050  1
  Li  Li23  1  0.90719044  0.06305519  0.59381050  1
  Li  Li24  1  0.46795084  0.21768759  0.00000000  1
  Li  Li25  1  0.53204916  0.78231241  0.00000000  1
  Li  Li26  1  0.03204916  0.71768759  0.50000000  1
  Li  Li27  1  0.96795084  0.28231241  0.50000000  1
  Li  Li28  1  0.81639485  0.01686265  -0.00000000  1
  Li  Li29  1  0.18360515  0.98313735  -0.00000000  1
  Li  Li30  1  0.68360515  0.51686265  0.50000000  1
  Li  Li31  1  0.31639485  0.48313735  0.50000000  1
