# generated using pymatgen
data_LiF
_symmetry_space_group_name_H-M   'P 1'
_cell_length_a   9.22758497
_cell_length_b   9.22758497
_cell_length_c   7.76460511
_cell_angle_alpha   90.00000000
_cell_angle_beta   90.00000000
_cell_angle_gamma   120.00000000
_symmetry_Int_Tables_number   1
_chemical_formula_structural   LiF
_chemical_formula_sum   'Li26 F26'
_cell_volume   572.56673290
_cell_formula_units_Z   26
loop_
 _symmetry_equiv_pos_site_id
 _symmetry_equiv_pos_as_xyz
  1  'x, y, z'
loop_
 _atom_site_type_symbol
 _atom_site_label
 _atom_site_symmetry_multiplicity
 _atom_site_fract_x
 _atom_site_fract_y
 _atom_site_fract_z
 _atom_site_occupancy
  F  F0  1  0.04203393  0.71336541  0.34527842  1
  F  F1  1  0.28663459  0.32866851  0.34527842  1
  F  F2  1  0.67133149  0.95796607  0.34527842  1
  F  F3  1  0.28663459  0.95796607  0.65472158  1
  F  F4  1  0.67133149  0.71336541  0.65472158  1
  F  F5  1  0.04203393  0.32866851  0.65472158  1
  F  F6  1  0.33333333  0.66666667  0.12748750  1
  F  F7  1  0.33333333  0.66666667  0.87251250  1
  F  F8  1  0.80266996  0.45262495  0.57787386  1
  F  F9  1  0.54737505  0.35004501  0.57787386  1
  F  F10  1  0.64995499  0.19733004  0.57787386  1
  F  F11  1  0.54737505  0.19733004  0.42212614  1
  F  F12  1  0.64995499  0.45262495  0.42212614  1
  F  F13  1  0.80266996  0.35004501  0.42212614  1
  F  F14  1  0.81041040  0.69386704  0.51496646  1
  F  F15  1  0.30613296  0.11654336  0.51496646  1
  F  F16  1  0.88345664  0.18958960  0.51496646  1
  F  F17  1  0.30613296  0.18958960  0.48503354  1
  F  F18  1  0.88345664  0.69386704  0.48503354  1
  F  F19  1  0.81041040  0.11654336  0.48503354  1
  F  F20  1  0.20118641  0.66367401  0.44206395  1
  F  F21  1  0.33632599  0.53751241  0.44206395  1
  F  F22  1  0.46248759  0.79881359  0.44206395  1
  F  F23  1  0.33632599  0.79881359  0.55793605  1
  F  F24  1  0.46248759  0.66367401  0.55793605  1
  F  F25  1  0.20118641  0.53751241  0.55793605  1
  Li  Li26  1  0.73267040  0.01220740  0.74394423  1
  Li  Li27  1  -0.01220740  0.72046300  0.74394423  1
  Li  Li28  1  -0.72046300  -0.73267040  0.74394423  1
  Li  Li29  1  -0.01220740  -0.73267040  -0.74394423  1
  Li  Li30  1  -0.72046300  0.01220740  -0.74394423  1
  Li  Li31  1  0.73267040  0.72046300  -0.74394423  1
  Li  Li32  1  0.66666667  0.33333333  0.50000000  1
  Li  Li33  1  0.38953966  0.83122520  0.13413701  1
  Li  Li34  1  0.16877480  0.55831445  0.13413701  1
  Li  Li35  1  0.44168555  0.61046034  0.13413701  1
  Li  Li36  1  0.16877480  0.61046034  0.86586299  1
  Li  Li37  1  0.44168555  0.83122520  0.86586299  1
  Li  Li38  1  0.38953966  0.55831445  0.86586299  1
  Li  Li39  1  0.66666667  0.33333333  0.09450961  1
  Li  Li40  1  0.66666667  0.33333333  0.90549039  1
  Li  Li41  1  0.44226412  0.04950577  0.88922488  1
  Li  Li42  1  0.95049423  0.39275834  0.88922488  1
  Li  Li43  1  0.60724166  0.55773588  0.88922488  1
  Li  Li44  1  0.95049423  0.55773588  0.11077512  1
  Li  Li45  1  0.60724166  0.04950577  0.11077512  1
  Li  Li46  1  0.44226412  0.39275834  0.11077512  1
  Li  Li47  1  0.76941843  0.23058157  0.00000000  1
  Li  Li48  1  0.76941843  0.53883686  0.00000000  1
  Li  Li49  1  0.46116314  0.23058157  0.00000000  1
  Li  Li50  1  0.33333333  0.66666667  0.27513224  1
  Li  Li51  1  0.33333333  0.66666667  0.72486776  1
