# generated using pymatgen
data_Li2Y2MoAsP3
_symmetry_space_group_name_H-M   'P 1'
_cell_length_a   4.20288828
_cell_length_b   4.51987585
_cell_length_c   6.77355574
_cell_angle_alpha   96.17091596
_cell_angle_beta   102.99436724
_cell_angle_gamma   112.62548150
_symmetry_Int_Tables_number   1
_chemical_formula_structural   Li2Y2MoAsP3
_chemical_formula_sum   'Li2 Y2 Mo1 As1 P3'
_cell_volume   113.00552271
_cell_formula_units_Z   1
loop_
 _symmetry_equiv_pos_site_id
 _symmetry_equiv_pos_as_xyz
  1  'x, y, z'
loop_
 _atom_site_type_symbol
 _atom_site_label
 _atom_site_symmetry_multiplicity
 _atom_site_fract_x
 _atom_site_fract_y
 _atom_site_fract_z
 _atom_site_occupancy
  Y  Y0  1  0.12500000  0.00000000  0.25000000  1
  Y  Y1  1  0.00000000  0.00000000  0.00000000  1
  P  P2  1  0.37500000  0.00000000  0.25000000  1
  P  P3  1  0.25000000  0.25000000  0.25000000  1
  P  P4  1  0.00000000  0.25000000  0.12500000  1
  Mo  Mo5  1  0.58403570  0.12643175  0.63288402  1
  As  As6  1  0.80410311  0.80306208  0.76310614  1
  Li  Li7  1  0.70517081  0.38549478  0.86424068  1
  Li  Li8  1  0.61460105  0.27384930  0.65618465  1
