# generated using pymatgen
data_LiF
_symmetry_space_group_name_H-M   'P 1'
_cell_length_a   13.36389575
_cell_length_b   7.96092073
_cell_length_c   5.88481979
_cell_angle_alpha   90.00000000
_cell_angle_beta   90.00000000
_cell_angle_gamma   90.00000000
_symmetry_Int_Tables_number   1
_chemical_formula_structural   LiF
_chemical_formula_sum   'Li24 F24'
_cell_volume   626.07959046
_cell_formula_units_Z   24
loop_
 _symmetry_equiv_pos_site_id
 _symmetry_equiv_pos_as_xyz
  1  'x, y, z'
loop_
 _atom_site_type_symbol
 _atom_site_label
 _atom_site_symmetry_multiplicity
 _atom_site_fract_x
 _atom_site_fract_y
 _atom_site_fract_z
 _atom_site_occupancy
  F  F0  1  0.00000000  0.00000000  0.50000000  1
  F  F1  1  0.50000000  0.50000000  0.00000000  1
  F  F2  1  0.48724862  0.89188501  0.29244277  1
  F  F3  1  0.51275138  0.10811499  0.29244277  1
  F  F4  1  0.01275138  0.39188501  0.20755723  1
  F  F5  1  0.98724862  0.60811499  0.20755723  1
  F  F6  1  0.51275138  0.10811499  0.70755723  1
  F  F7  1  0.48724862  0.89188501  0.70755723  1
  F  F8  1  0.98724862  0.60811499  0.79244277  1
  F  F9  1  0.01275138  0.39188501  0.79244277  1
  F  F10  1  0.61774989  0.83282109  0.30971582  1
  F  F11  1  0.38225011  0.16717891  0.30971582  1
  F  F12  1  0.88225011  0.33282109  0.19028418  1
  F  F13  1  0.11774989  0.66717891  0.19028418  1
  F  F14  1  0.38225011  0.16717891  0.69028418  1
  F  F15  1  0.61774989  0.83282109  0.69028418  1
  F  F16  1  0.11774989  0.66717891  0.80971582  1
  F  F17  1  0.88225011  0.33282109  0.80971582  1
  F  F18  1  0.00000000  0.50000000  0.00000000  1
  F  F19  1  0.50000000  0.00000000  0.50000000  1
  F  F20  1  0.75591028  0.72039485  0.00000000  1
  F  F21  1  0.24408972  0.27960515  0.00000000  1
  F  F22  1  0.74408972  0.22039485  0.50000000  1
  F  F23  1  0.25591028  0.77960515  0.50000000  1
  Li  Li24  1  0.72612061  0.97223921  0.61639440  1
  Li  Li25  1  -0.72612061  -0.97223921  0.61639440  1
  Li  Li26  1  -0.22612061  1.47223921  -0.11639440  1
  Li  Li27  1  1.22612061  -0.47223921  -0.11639440  1
  Li  Li28  1  -0.72612061  -0.97223921  -0.61639440  1
  Li  Li29  1  0.72612061  0.97223921  -0.61639440  1
  Li  Li30  1  1.22612061  -0.47223921  1.11639440  1
  Li  Li31  1  -0.22612061  1.47223921  1.11639440  1
  Li  Li32  1  0.00000000  0.50000000  0.34884584  1
  Li  Li33  1  0.50000000  0.00000000  0.15115416  1
  Li  Li34  1  0.00000000  0.50000000  0.65115416  1
  Li  Li35  1  0.50000000  0.00000000  0.84884584  1
  Li  Li36  1  0.53273195  0.67186622  0.18612574  1
  Li  Li37  1  0.46726805  0.32813378  0.18612574  1
  Li  Li38  1  0.96726805  0.17186622  0.31387426  1
  Li  Li39  1  0.03273195  0.82813378  0.31387426  1
  Li  Li40  1  0.46726805  0.32813378  0.81387426  1
  Li  Li41  1  0.53273195  0.67186622  0.81387426  1
  Li  Li42  1  0.03273195  0.82813378  0.68612574  1
  Li  Li43  1  0.96726805  0.17186622  0.68612574  1
  Li  Li44  1  0.23685242  0.13485327  0.00000000  1
  Li  Li45  1  0.76314758  0.86514673  0.00000000  1
  Li  Li46  1  0.26314758  0.63485327  0.50000000  1
  Li  Li47  1  0.73685242  0.36514673  0.50000000  1
