# generated using pymatgen
data_Li2Ca3F8
_symmetry_space_group_name_H-M   'P 1'
_cell_length_a   10.09491905
_cell_length_b   10.09491905
_cell_length_c   20.01200297
_cell_angle_alpha   90.00000000
_cell_angle_beta   90.00000000
_cell_angle_gamma   90.00000000
_symmetry_Int_Tables_number   1
_chemical_formula_structural   Li2Ca3F8
_chemical_formula_sum   'Li16 Ca24 F64'
_cell_volume   2039.37100309
_cell_formula_units_Z   8
loop_
 _symmetry_equiv_pos_site_id
 _symmetry_equiv_pos_as_xyz
  1  'x, y, z'
loop_
 _atom_site_type_symbol
 _atom_site_label
 _atom_site_symmetry_multiplicity
 _atom_site_fract_x
 _atom_site_fract_y
 _atom_site_fract_z
 _atom_site_occupancy
  Ca  Ca0  1  0.00000000  0.25000000  0.37500000  1
  Ca  Ca1  1  0.00000000  0.75000000  0.62500000  1
  Ca  Ca2  1  0.50000000  0.25000000  0.62500000  1
  Ca  Ca3  1  0.50000000  0.75000000  0.37500000  1
  Ca  Ca4  1  0.50000000  0.75000000  0.87500000  1
  Ca  Ca5  1  0.50000000  0.25000000  0.12500000  1
  Ca  Ca6  1  0.00000000  0.75000000  0.12500000  1
  Ca  Ca7  1  0.00000000  0.25000000  0.87500000  1
  Ca  Ca8  1  0.71849704  0.00000000  0.25000000  1
  Ca  Ca9  1  0.78150296  0.00000000  0.75000000  1
  Ca  Ca10  1  0.25000000  0.46849704  0.50000000  1
  Ca  Ca11  1  0.25000000  0.53150296  -0.00000000  1
  Ca  Ca12  1  0.28150296  0.00000000  0.75000000  1
  Ca  Ca13  1  0.21849704  0.00000000  0.25000000  1
  Ca  Ca14  1  0.75000000  0.53150296  0.50000000  1
  Ca  Ca15  1  0.75000000  0.46849704  0.00000000  1
  Ca  Ca16  1  0.21849704  0.50000000  0.75000000  1
  Ca  Ca17  1  0.28150296  0.50000000  0.25000000  1
  Ca  Ca18  1  0.75000000  0.96849704  -0.00000000  1
  Ca  Ca19  1  0.75000000  0.03150296  0.50000000  1
  Ca  Ca20  1  0.78150296  0.50000000  0.25000000  1
  Ca  Ca21  1  0.71849704  0.50000000  0.75000000  1
  Ca  Ca22  1  0.25000000  0.03150296  -0.00000000  1
  Ca  Ca23  1  0.25000000  0.96849704  0.50000000  1
  F  F24  1  0.22890203  0.36458509  0.46474559  1
  F  F25  1  0.27109797  -0.36458509  0.96474559  1
  F  F26  1  -0.11458509  0.97890203  0.71474559  1
  F  F27  1  0.61458509  0.02109797  1.21474559  1
  F  F28  1  0.27109797  0.36458509  -0.46474559  1
  F  F29  1  0.22890203  -0.36458509  0.03525441  1
  F  F30  1  0.61458509  0.97890203  0.28525441  1
  F  F31  1  -0.11458509  0.02109797  -0.21474559  1
  F  F32  1  -0.22890203  -0.36458509  -0.46474559  1
  F  F33  1  0.72890203  0.36458509  0.03525441  1
  F  F34  1  1.11458509  0.02109797  0.28525441  1
  F  F35  1  0.38541491  0.97890203  -0.21474559  1
  F  F36  1  0.72890203  -0.36458509  0.46474559  1
  F  F37  1  -0.22890203  0.36458509  0.96474559  1
  F  F38  1  0.38541491  0.02109797  0.71474559  1
  F  F39  1  1.11458509  0.97890203  1.21474559  1
  F  F40  1  0.72890203  0.86458509  0.96474559  1
  F  F41  1  0.77109797  0.13541491  1.46474559  1
  F  F42  1  0.38541491  1.47890203  1.21474559  1
  F  F43  1  1.11458509  0.52109797  1.71474559  1
  F  F44  1  0.77109797  0.86458509  0.03525441  1
  F  F45  1  0.72890203  0.13541491  0.53525441  1
  F  F46  1  1.11458509  1.47890203  0.78525441  1
  F  F47  1  0.38541491  0.52109797  0.28525441  1
  F  F48  1  0.27109797  0.13541491  0.03525441  1
  F  F49  1  1.22890203  0.86458509  0.53525441  1
  F  F50  1  1.61458509  0.52109797  0.78525441  1
  F  F51  1  0.88541491  1.47890203  0.28525441  1
  F  F52  1  1.22890203  0.13541491  0.96474559  1
  F  F53  1  0.27109797  0.86458509  1.46474559  1
  F  F54  1  0.88541491  0.52109797  1.21474559  1
  F  F55  1  1.61458509  1.47890203  1.71474559  1
  F  F56  1  0.67213683  0.50627316  0.91210867  1
  F  F57  1  0.82786317  0.49372684  0.41210867  1
  F  F58  1  0.74372684  0.42213683  0.16210867  1
  F  F59  1  0.75627316  0.57786317  0.66210867  1
  F  F60  1  0.82786317  0.50627316  0.08789133  1
  F  F61  1  0.67213683  0.49372684  0.58789133  1
  F  F62  1  0.75627316  0.42213683  0.83789133  1
  F  F63  1  0.74372684  0.57786317  0.33789133  1
  F  F64  1  0.32786317  0.49372684  0.08789133  1
  F  F65  1  0.17213683  0.50627316  0.58789133  1
  F  F66  1  0.25627316  0.57786317  0.83789133  1
  F  F67  1  0.24372684  0.42213683  0.33789133  1
  F  F68  1  0.17213683  0.49372684  0.91210867  1
  F  F69  1  0.32786317  0.50627316  0.41210867  1
  F  F70  1  0.24372684  0.57786317  0.16210867  1
  F  F71  1  0.25627316  0.42213683  0.66210867  1
  F  F72  1  0.17213683  0.00627316  0.41210867  1
  F  F73  1  0.32786317  0.99372684  0.91210867  1
  F  F74  1  0.24372684  0.92213683  0.66210867  1
  F  F75  1  0.25627316  0.07786317  0.16210867  1
  F  F76  1  0.32786317  0.00627316  0.58789133  1
  F  F77  1  0.17213683  0.99372684  0.08789133  1
  F  F78  1  0.25627316  0.92213683  0.33789133  1
  F  F79  1  0.24372684  0.07786317  0.83789133  1
  F  F80  1  0.82786317  0.99372684  0.58789133  1
  F  F81  1  0.67213683  0.00627316  0.08789133  1
  F  F82  1  0.75627316  0.07786317  0.33789133  1
  F  F83  1  0.74372684  0.92213683  0.83789133  1
  F  F84  1  0.67213683  0.99372684  0.41210867  1
  F  F85  1  0.82786317  0.00627316  0.91210867  1
  F  F86  1  0.74372684  0.07786317  0.66210867  1
  F  F87  1  0.75627316  0.92213683  0.16210867  1
  Li  Li88  1  0.24996110  0.49996110  0.12500000  1
  Li  Li89  1  0.25003890  0.50003890  0.62500000  1
  Li  Li90  1  0.75003890  0.99996110  0.37500000  1
  Li  Li91  1  0.74996110  0.00003890  0.87500000  1
  Li  Li92  1  0.75003890  0.50003890  0.87500000  1
  Li  Li93  1  0.74996110  0.49996110  0.37500000  1
  Li  Li94  1  0.24996110  0.00003890  0.62500000  1
  Li  Li95  1  0.25003890  0.99996110  0.12500000  1
  Li  Li96  1  0.74996110  0.99996110  0.62500000  1
  Li  Li97  1  0.75003890  0.00003890  0.12500000  1
  Li  Li98  1  0.25003890  0.49996110  0.87500000  1
  Li  Li99  1  0.24996110  0.50003890  0.37500000  1
  Li  Li100  1  0.25003890  0.00003890  0.37500000  1
  Li  Li101  1  0.24996110  0.99996110  0.87500000  1
  Li  Li102  1  0.74996110  0.50003890  0.12500000  1
  Li  Li103  1  0.75003890  0.49996110  0.62500000  1
