# generated using pymatgen
data_LiF
_symmetry_space_group_name_H-M   'P 1'
_cell_length_a   12.51182730
_cell_length_b   12.51182730
_cell_length_c   6.72338617
_cell_angle_alpha   90.00000000
_cell_angle_beta   90.00000000
_cell_angle_gamma   90.00000000
_symmetry_Int_Tables_number   1
_chemical_formula_structural   LiF
_chemical_formula_sum   'Li29 F29'
_cell_volume   1052.51801735
_cell_formula_units_Z   29
loop_
 _symmetry_equiv_pos_site_id
 _symmetry_equiv_pos_as_xyz
  1  'x, y, z'
loop_
 _atom_site_type_symbol
 _atom_site_label
 _atom_site_symmetry_multiplicity
 _atom_site_fract_x
 _atom_site_fract_y
 _atom_site_fract_z
 _atom_site_occupancy
  F  F0  1  0.50000000  0.50000000  0.95741943  1
  F  F1  1  0.50000000  0.50000000  0.04258057  1
  F  F2  1  0.69251655  0.23079888  0.40484758  1
  F  F3  1  -0.69251655  -0.23079888  0.40484758  1
  F  F4  1  -0.23079888  0.69251655  0.40484758  1
  F  F5  1  0.23079888  -0.69251655  0.40484758  1
  F  F6  1  -0.69251655  0.23079888  -0.40484758  1
  F  F7  1  0.69251655  -0.23079888  -0.40484758  1
  F  F8  1  0.23079888  0.69251655  -0.40484758  1
  F  F9  1  -0.23079888  -0.69251655  -0.40484758  1
  F  F10  1  -0.69251655  -0.23079888  -0.40484758  1
  F  F11  1  0.69251655  0.23079888  -0.40484758  1
  F  F12  1  0.23079888  -0.69251655  -0.40484758  1
  F  F13  1  -0.23079888  0.69251655  -0.40484758  1
  F  F14  1  0.69251655  -0.23079888  0.40484758  1
  F  F15  1  -0.69251655  0.23079888  0.40484758  1
  F  F16  1  -0.23079888  -0.69251655  0.40484758  1
  F  F17  1  0.23079888  0.69251655  0.40484758  1
  F  F18  1  0.59323586  0.00000000  0.62090484  1
  F  F19  1  0.40676414  0.00000000  0.62090484  1
  F  F20  1  0.00000000  0.59323586  0.62090484  1
  F  F21  1  0.00000000  0.40676414  0.62090484  1
  F  F22  1  0.40676414  0.00000000  0.37909516  1
  F  F23  1  0.59323586  0.00000000  0.37909516  1
  F  F24  1  0.00000000  0.59323586  0.37909516  1
  F  F25  1  0.00000000  0.40676414  0.37909516  1
  F  F26  1  0.00000000  0.00000000  0.77928987  1
  F  F27  1  0.00000000  0.00000000  0.22071013  1
  F  F28  1  0.50000000  0.50000000  0.50000000  1
  Li  Li29  1  0.62980111  0.50000000  0.89682167  1
  Li  Li30  1  0.37019889  0.50000000  0.89682167  1
  Li  Li31  1  0.50000000  0.62980111  0.89682167  1
  Li  Li32  1  0.50000000  0.37019889  0.89682167  1
  Li  Li33  1  0.37019889  0.50000000  0.10317833  1
  Li  Li34  1  0.62980111  0.50000000  0.10317833  1
  Li  Li35  1  0.50000000  0.62980111  0.10317833  1
  Li  Li36  1  0.50000000  0.37019889  0.10317833  1
  Li  Li37  1  0.59393914  -0.00000000  0.09733232  1
  Li  Li38  1  0.40606086  0.00000000  0.09733232  1
  Li  Li39  1  0.00000000  0.59393914  0.09733232  1
  Li  Li40  1  0.00000000  0.40606086  0.09733232  1
  Li  Li41  1  0.40606086  0.00000000  0.90266768  1
  Li  Li42  1  0.59393914  -0.00000000  0.90266768  1
  Li  Li43  1  0.00000000  0.59393914  0.90266768  1
  Li  Li44  1  0.00000000  0.40606086  0.90266768  1
  Li  Li45  1  0.00000000  0.00000000  0.50000000  1
  Li  Li46  1  0.00000000  0.50000000  0.50000000  1
  Li  Li47  1  0.50000000  0.00000000  0.50000000  1
  Li  Li48  1  0.39243813  0.39243813  -0.00000000  1
  Li  Li49  1  0.60756187  0.60756187  -0.00000000  1
  Li  Li50  1  0.60756187  0.39243813  -0.00000000  1
  Li  Li51  1  0.39243813  0.60756187  0.00000000  1
  Li  Li52  1  0.39688860  0.39688860  0.50000000  1
  Li  Li53  1  0.60311140  0.60311140  0.50000000  1
  Li  Li54  1  0.60311140  0.39688860  0.50000000  1
  Li  Li55  1  0.39688860  0.60311140  0.50000000  1
  Li  Li56  1  0.00000000  0.50000000  0.00000000  1
  Li  Li57  1  0.50000000  0.00000000  0.00000000  1
