# generated using pymatgen
data_LiF
_symmetry_space_group_name_H-M   'P 1'
_cell_length_a   4.24396632
_cell_length_b   4.24396632
_cell_length_c   11.22005009
_cell_angle_alpha   90.00000000
_cell_angle_beta   90.00000000
_cell_angle_gamma   120.00000000
_symmetry_Int_Tables_number   1
_chemical_formula_structural   LiF
_chemical_formula_sum   'Li8 F8'
_cell_volume   175.01258688
_cell_formula_units_Z   8
loop_
 _symmetry_equiv_pos_site_id
 _symmetry_equiv_pos_as_xyz
  1  'x, y, z'
loop_
 _atom_site_type_symbol
 _atom_site_label
 _atom_site_symmetry_multiplicity
 _atom_site_fract_x
 _atom_site_fract_y
 _atom_site_fract_z
 _atom_site_occupancy
  F  F0  1  0.66666667  0.33333333  0.96637525  1
  F  F1  1  0.66666667  0.33333333  0.03362475  1
  F  F2  1  0.80492635  0.08495386  0.79803848  1
  F  F3  1  0.91504614  0.71997249  0.79803848  1
  F  F4  1  0.28002751  0.19507365  0.79803848  1
  F  F5  1  0.91504614  0.19507365  0.20196152  1
  F  F6  1  0.28002751  0.08495386  0.20196152  1
  F  F7  1  0.80492635  0.71997249  0.20196152  1
  Li  Li8  1  0.07107005  0.35407994  0.37291806  1
  Li  Li9  1  -0.35407994  -0.28300989  0.37291806  1
  Li  Li10  1  0.28300989  -0.07107005  0.37291806  1
  Li  Li11  1  -0.35407994  -0.07107005  -0.37291806  1
  Li  Li12  1  0.28300989  0.35407994  -0.37291806  1
  Li  Li13  1  0.07107005  -0.28300989  -0.37291806  1
  Li  Li14  1  0.00000000  0.00000000  0.26834813  1
  Li  Li15  1  0.00000000  0.00000000  0.73165187  1
