# generated using pymatgen
data_LiF
_symmetry_space_group_name_H-M   'P 1'
_cell_length_a   21.18516412
_cell_length_b   21.18516412
_cell_length_c   7.38508744
_cell_angle_alpha   90.00000000
_cell_angle_beta   90.00000000
_cell_angle_gamma   120.00000000
_symmetry_Int_Tables_number   1
_chemical_formula_structural   LiF
_chemical_formula_sum   'Li72 F72'
_cell_volume   2870.44968945
_cell_formula_units_Z   72
loop_
 _symmetry_equiv_pos_site_id
 _symmetry_equiv_pos_as_xyz
  1  'x, y, z'
loop_
 _atom_site_type_symbol
 _atom_site_label
 _atom_site_symmetry_multiplicity
 _atom_site_fract_x
 _atom_site_fract_y
 _atom_site_fract_z
 _atom_site_occupancy
  F  F0  1  0.51418001  0.00000000  0.25000000  1
  F  F1  1  0.00000000  0.51418001  0.25000000  1
  F  F2  1  0.48581999  0.48581999  0.25000000  1
  F  F3  1  0.48581999  0.00000000  0.75000000  1
  F  F4  1  0.00000000  0.48581999  0.75000000  1
  F  F5  1  0.51418001  0.51418001  0.75000000  1
  F  F6  1  0.18084667  0.33333333  0.58333333  1
  F  F7  1  0.66666667  0.84751334  0.58333333  1
  F  F8  1  0.15248666  0.81915333  0.58333333  1
  F  F9  1  0.15248666  0.33333333  0.08333333  1
  F  F10  1  0.66666667  0.81915333  0.08333333  1
  F  F11  1  0.18084667  0.84751334  0.08333333  1
  F  F12  1  0.84751334  0.66666667  0.91666667  1
  F  F13  1  0.33333333  0.18084667  0.91666667  1
  F  F14  1  0.81915333  0.15248666  0.91666667  1
  F  F15  1  0.81915333  0.66666667  0.41666667  1
  F  F16  1  0.33333333  0.15248666  0.41666667  1
  F  F17  1  0.84751334  0.18084667  0.41666667  1
  F  F18  1  0.77597514  0.91241568  0.01854452  1
  F  F19  1  0.08758432  0.86355947  0.01854452  1
  F  F20  1  0.13644053  0.22402486  0.01854452  1
  F  F21  1  0.91241568  0.77597514  0.48145548  1
  F  F22  1  0.86355947  0.08758432  0.48145548  1
  F  F23  1  0.22402486  0.13644053  0.48145548  1
  F  F24  1  0.22402486  0.08758432  0.98145548  1
  F  F25  1  0.91241568  0.13644053  0.98145548  1
  F  F26  1  0.86355947  0.77597514  0.98145548  1
  F  F27  1  0.08758432  0.22402486  0.51854452  1
  F  F28  1  0.13644053  0.91241568  0.51854452  1
  F  F29  1  0.77597514  0.86355947  0.51854452  1
  F  F30  1  0.44264181  0.24574901  0.35187785  1
  F  F31  1  0.75425099  0.19689280  0.35187785  1
  F  F32  1  0.80310720  0.55735819  0.35187785  1
  F  F33  1  0.57908235  0.10930848  0.81478882  1
  F  F34  1  0.53022613  0.42091765  0.81478882  1
  F  F35  1  0.89069152  0.46977387  0.81478882  1
  F  F36  1  0.89069152  0.42091765  0.31478882  1
  F  F37  1  0.57908235  0.46977387  0.31478882  1
  F  F38  1  0.53022613  0.10930848  0.31478882  1
  F  F39  1  0.75425099  0.55735819  0.85187785  1
  F  F40  1  0.80310720  0.24574901  0.85187785  1
  F  F41  1  0.44264181  0.19689280  0.85187785  1
  F  F42  1  0.10930848  0.57908235  0.68521118  1
  F  F43  1  0.42091765  0.53022613  0.68521118  1
  F  F44  1  0.46977387  0.89069152  0.68521118  1
  F  F45  1  0.24574901  0.44264181  0.14812215  1
  F  F46  1  0.19689280  0.75425099  0.14812215  1
  F  F47  1  0.55735819  0.80310720  0.14812215  1
  F  F48  1  0.55735819  0.75425099  0.64812215  1
  F  F49  1  0.24574901  0.80310720  0.64812215  1
  F  F50  1  0.19689280  0.44264181  0.64812215  1
  F  F51  1  0.42091765  0.89069152  0.18521118  1
  F  F52  1  0.46977387  0.57908235  0.18521118  1
  F  F53  1  0.10930848  0.53022613  0.18521118  1
  F  F54  1  0.00000000  0.00000000  0.67605472  1
  F  F55  1  0.00000000  0.00000000  0.82394528  1
  F  F56  1  0.00000000  0.00000000  0.32394528  1
  F  F57  1  0.00000000  0.00000000  0.17605472  1
  F  F58  1  0.66666667  0.33333333  0.00938805  1
  F  F59  1  0.66666667  0.33333333  0.15727862  1
  F  F60  1  0.66666667  0.33333333  0.65727862  1
  F  F61  1  0.66666667  0.33333333  0.50938805  1
  F  F62  1  0.33333333  0.66666667  0.34272138  1
  F  F63  1  0.33333333  0.66666667  0.49061195  1
  F  F64  1  0.33333333  0.66666667  0.99061195  1
  F  F65  1  0.33333333  0.66666667  0.84272138  1
  F  F66  1  0.00000000  0.00000000  0.00000000  1
  F  F67  1  0.00000000  0.00000000  0.50000000  1
  F  F68  1  0.66666667  0.33333333  0.33333333  1
  F  F69  1  0.66666667  0.33333333  0.83333333  1
  F  F70  1  0.33333333  0.66666667  0.66666667  1
  F  F71  1  0.33333333  0.66666667  0.16666667  1
  Li  Li72  1  0.72295085  0.48771079  0.80142335  1
  Li  Li73  1  -0.48771079  0.23524007  0.80142335  1
  Li  Li74  1  -0.23524007  -0.72295085  0.80142335  1
  Li  Li75  1  0.48771079  0.72295085  -0.30142335  1
  Li  Li76  1  0.23524007  -0.48771079  -0.30142335  1
  Li  Li77  1  -0.72295085  -0.23524007  -0.30142335  1
  Li  Li78  1  -0.72295085  -0.48771079  -0.80142335  1
  Li  Li79  1  0.48771079  -0.23524007  -0.80142335  1
  Li  Li80  1  0.23524007  0.72295085  -0.80142335  1
  Li  Li81  1  -0.48771079  -0.72295085  1.30142335  1
  Li  Li82  1  -0.23524007  0.48771079  1.30142335  1
  Li  Li83  1  0.72295085  0.23524007  1.30142335  1
  Li  Li84  1  1.38961752  0.82104412  1.13475669  1
  Li  Li85  1  0.17895588  0.56857340  1.13475669  1
  Li  Li86  1  0.43142660  -0.38961752  1.13475669  1
  Li  Li87  1  1.15437745  1.05628419  0.03190998  1
  Li  Li88  1  0.90190673  -0.15437745  0.03190998  1
  Li  Li89  1  -0.05628419  0.09809327  0.03190998  1
  Li  Li90  1  -0.05628419  -0.15437745  -0.46809002  1
  Li  Li91  1  1.15437745  0.09809327  -0.46809002  1
  Li  Li92  1  0.90190673  1.05628419  -0.46809002  1
  Li  Li93  1  0.17895588  -0.38961752  1.63475669  1
  Li  Li94  1  0.43142660  0.82104412  1.63475669  1
  Li  Li95  1  1.38961752  0.56857340  1.63475669  1
  Li  Li96  1  1.05628419  1.15437745  1.46809002  1
  Li  Li97  1  -0.15437745  0.90190673  1.46809002  1
  Li  Li98  1  0.09809327  -0.05628419  1.46809002  1
  Li  Li99  1  0.82104412  1.38961752  0.36524331  1
  Li  Li100  1  0.56857340  0.17895588  0.36524331  1
  Li  Li101  1  -0.38961752  0.43142660  0.36524331  1
  Li  Li102  1  -0.38961752  0.17895588  -0.13475669  1
  Li  Li103  1  0.82104412  0.43142660  -0.13475669  1
  Li  Li104  1  0.56857340  1.38961752  -0.13475669  1
  Li  Li105  1  -0.15437745  -0.05628419  1.96809002  1
  Li  Li106  1  0.09809327  1.15437745  1.96809002  1
  Li  Li107  1  1.05628419  0.90190673  1.96809002  1
  Li  Li108  1  0.42694840  0.00000000  0.25000000  1
  Li  Li109  1  0.00000000  0.42694840  0.25000000  1
  Li  Li110  1  0.57305160  0.57305160  0.25000000  1
  Li  Li111  1  0.57305160  0.00000000  0.75000000  1
  Li  Li112  1  0.00000000  0.57305160  0.75000000  1
  Li  Li113  1  0.42694840  0.42694840  0.75000000  1
  Li  Li114  1  0.09361506  0.33333333  0.58333333  1
  Li  Li115  1  0.66666667  0.76028173  0.58333333  1
  Li  Li116  1  0.23971827  0.90638494  0.58333333  1
  Li  Li117  1  0.23971827  0.33333333  0.08333333  1
  Li  Li118  1  0.66666667  0.90638494  0.08333333  1
  Li  Li119  1  0.09361506  0.76028173  0.08333333  1
  Li  Li120  1  0.76028173  0.66666667  0.91666667  1
  Li  Li121  1  0.33333333  0.09361506  0.91666667  1
  Li  Li122  1  0.90638494  0.23971827  0.91666667  1
  Li  Li123  1  0.90638494  0.66666667  0.41666667  1
  Li  Li124  1  0.33333333  0.23971827  0.41666667  1
  Li  Li125  1  0.76028173  0.09361506  0.41666667  1
  Li  Li126  1  0.50000000  0.00000000  0.00000000  1
  Li  Li127  1  0.00000000  0.50000000  -0.00000000  1
  Li  Li128  1  0.50000000  0.50000000  0.00000000  1
  Li  Li129  1  0.00000000  0.50000000  0.50000000  1
  Li  Li130  1  0.50000000  0.00000000  0.50000000  1
  Li  Li131  1  0.50000000  0.50000000  0.50000000  1
  Li  Li132  1  0.16666667  0.33333333  0.33333333  1
  Li  Li133  1  0.66666667  0.83333333  0.33333333  1
  Li  Li134  1  0.16666667  0.83333333  0.33333333  1
  Li  Li135  1  0.66666667  0.83333333  0.83333333  1
  Li  Li136  1  0.16666667  0.33333333  0.83333333  1
  Li  Li137  1  0.16666667  0.83333333  0.83333333  1
  Li  Li138  1  0.83333333  0.66666667  0.66666667  1
  Li  Li139  1  0.33333333  0.16666667  0.66666667  1
  Li  Li140  1  0.83333333  0.16666667  0.66666667  1
  Li  Li141  1  0.33333333  0.16666667  0.16666667  1
  Li  Li142  1  0.83333333  0.66666667  0.16666667  1
  Li  Li143  1  0.83333333  0.16666667  0.16666667  1
