# generated using pymatgen
data_Li3Y2P3Se
_symmetry_space_group_name_H-M   'P 1'
_cell_length_a   5.88501733
_cell_length_b   6.06118960
_cell_length_c   7.28889464
_cell_angle_alpha   92.69974619
_cell_angle_beta   96.12847261
_cell_angle_gamma   101.14444461
_symmetry_Int_Tables_number   1
_chemical_formula_structural   Li3Y2P3Se
_chemical_formula_sum   'Li3 Y2 P3 Se1'
_cell_volume   253.02361133
_cell_formula_units_Z   1
loop_
 _symmetry_equiv_pos_site_id
 _symmetry_equiv_pos_as_xyz
  1  'x, y, z'
loop_
 _atom_site_type_symbol
 _atom_site_label
 _atom_site_symmetry_multiplicity
 _atom_site_fract_x
 _atom_site_fract_y
 _atom_site_fract_z
 _atom_site_occupancy
  Se  Se0  1  0.00000000  0.00000000  0.00000000  1
  P  P1  1  0.33300000  0.66700000  0.25000000  1
  P  P2  1  0.66700000  0.33300000  0.50000000  1
  P  P3  1  0.00000000  0.00000000  0.75000000  1
  Li  Li4  1  0.89613880  0.83372244  0.00486705  1
  Li  Li5  1  0.73960140  0.62828171  0.76968122  1
  Li  Li6  1  0.44719284  0.28211453  0.43838097  1
  Y  Y7  1  0.85332274  0.22835486  0.06096685  1
  Y  Y8  1  0.38157940  0.61376481  0.65429349  1
