# generated using pymatgen
data_LiF
_symmetry_space_group_name_H-M   'P 1'
_cell_length_a   4.91173638
_cell_length_b   7.68091892
_cell_length_c   6.51198029
_cell_angle_alpha   90.00000000
_cell_angle_beta   90.00000000
_cell_angle_gamma   90.00000000
_symmetry_Int_Tables_number   1
_chemical_formula_structural   LiF
_chemical_formula_sum   'Li12 F12'
_cell_volume   245.67519420
_cell_formula_units_Z   12
loop_
 _symmetry_equiv_pos_site_id
 _symmetry_equiv_pos_as_xyz
  1  'x, y, z'
loop_
 _atom_site_type_symbol
 _atom_site_label
 _atom_site_symmetry_multiplicity
 _atom_site_fract_x
 _atom_site_fract_y
 _atom_site_fract_z
 _atom_site_occupancy
  F  F0  1  0.55289460  0.90871100  0.00000000  1
  F  F1  1  0.44710540  0.09128900  -0.00000000  1
  F  F2  1  0.94710540  0.40871100  0.00000000  1
  F  F3  1  0.05289460  0.59128900  -0.00000000  1
  F  F4  1  0.00000000  0.50000000  0.00000000  1
  F  F5  1  0.50000000  -0.00000000  0.00000000  1
  F  F6  1  0.00000000  0.00000000  0.00000000  1
  F  F7  1  0.50000000  0.50000000  0.00000000  1
  F  F8  1  0.00000000  0.00000000  0.50000000  1
  F  F9  1  0.50000000  0.50000000  0.50000000  1
  F  F10  1  0.00000000  0.50000000  0.50000000  1
  F  F11  1  0.50000000  -0.00000000  0.50000000  1
  Li  Li12  1  0.97046767  0.89658811  0.13754261  1
  Li  Li13  1  -0.97046767  -0.89658811  0.13754261  1
  Li  Li14  1  -0.47046767  1.39658811  -0.13754261  1
  Li  Li15  1  1.47046767  -0.39658811  -0.13754261  1
  Li  Li16  1  -0.97046767  -0.89658811  -0.13754261  1
  Li  Li17  1  0.97046767  0.89658811  -0.13754261  1
  Li  Li18  1  1.47046767  -0.39658811  0.13754261  1
  Li  Li19  1  -0.47046767  1.39658811  0.13754261  1
  Li  Li20  1  0.28672690  0.24652975  0.50000000  1
  Li  Li21  1  0.71327310  0.75347025  0.50000000  1
  Li  Li22  1  0.21327310  0.74652975  0.50000000  1
  Li  Li23  1  0.78672690  0.25347025  0.50000000  1
