# generated using pymatgen
data_LiF
_symmetry_space_group_name_H-M   'P 1'
_cell_length_a   9.84716094
_cell_length_b   6.41530660
_cell_length_c   9.53951159
_cell_angle_alpha   90.00000000
_cell_angle_beta   90.00000000
_cell_angle_gamma   90.00000000
_symmetry_Int_Tables_number   1
_chemical_formula_structural   LiF
_chemical_formula_sum   'Li24 F24'
_cell_volume   602.63533631
_cell_formula_units_Z   24
loop_
 _symmetry_equiv_pos_site_id
 _symmetry_equiv_pos_as_xyz
  1  'x, y, z'
loop_
 _atom_site_type_symbol
 _atom_site_label
 _atom_site_symmetry_multiplicity
 _atom_site_fract_x
 _atom_site_fract_y
 _atom_site_fract_z
 _atom_site_occupancy
  F  F0  1  0.78796316  0.13509201  0.39516775  1
  F  F1  1  0.71203684  0.86490799  0.89516775  1
  F  F2  1  0.21203684  0.63509201  0.60483225  1
  F  F3  1  0.28796316  0.36490799  0.10483225  1
  F  F4  1  0.21203684  0.86490799  0.60483225  1
  F  F5  1  0.28796316  0.13509201  0.10483225  1
  F  F6  1  0.78796316  0.36490799  0.39516775  1
  F  F7  1  0.71203684  0.63509201  0.89516775  1
  F  F8  1  0.48322169  0.55606699  0.62531427  1
  F  F9  1  0.01677831  0.44393301  0.12531427  1
  F  F10  1  0.51677831  0.05606699  0.37468573  1
  F  F11  1  0.98322169  0.94393301  0.87468573  1
  F  F12  1  0.51677831  0.44393301  0.37468573  1
  F  F13  1  0.98322169  0.55606699  0.87468573  1
  F  F14  1  0.48322169  0.94393301  0.62531427  1
  F  F15  1  0.01677831  0.05606699  0.12531427  1
  F  F16  1  0.48807995  0.91199083  0.15709211  1
  F  F17  1  0.01192005  0.08800917  0.65709211  1
  F  F18  1  0.51192005  0.41199083  0.84290789  1
  F  F19  1  0.98807995  0.58800917  0.34290789  1
  F  F20  1  0.51192005  0.08800917  0.84290789  1
  F  F21  1  0.98807995  0.91199083  0.34290789  1
  F  F22  1  0.48807995  0.58800917  0.15709211  1
  F  F23  1  0.01192005  0.41199083  0.65709211  1
  Li  Li24  1  0.60571959  0.55680677  0.17124756  1
  Li  Li25  1  -0.10571959  -0.55680677  0.67124756  1
  Li  Li26  1  -0.60571959  1.05680677  -0.17124756  1
  Li  Li27  1  1.10571959  -0.05680677  0.32875244  1
  Li  Li28  1  -0.60571959  -0.55680677  -0.17124756  1
  Li  Li29  1  1.10571959  0.55680677  0.32875244  1
  Li  Li30  1  0.60571959  -0.05680677  0.17124756  1
  Li  Li31  1  -0.10571959  1.05680677  0.67124756  1
  Li  Li32  1  0.00000000  0.00000000  0.00000000  1
  Li  Li33  1  0.50000000  0.00000000  0.50000000  1
  Li  Li34  1  0.00000000  0.50000000  0.00000000  1
  Li  Li35  1  0.50000000  0.50000000  0.50000000  1
  Li  Li36  1  0.00000000  0.00000000  0.50000000  1
  Li  Li37  1  0.50000000  0.00000000  0.00000000  1
  Li  Li38  1  0.00000000  0.50000000  0.50000000  1
  Li  Li39  1  0.50000000  0.50000000  -0.00000000  1
  Li  Li40  1  0.56534745  0.25000000  0.28624311  1
  Li  Li41  1  0.93465255  0.75000000  0.78624311  1
  Li  Li42  1  0.43465255  0.75000000  0.71375689  1
  Li  Li43  1  0.06534745  0.25000000  0.21375689  1
  Li  Li44  1  0.32769751  0.25000000  0.54055895  1
  Li  Li45  1  0.17230249  0.75000000  0.04055895  1
  Li  Li46  1  0.67230249  0.75000000  0.45944105  1
  Li  Li47  1  0.82769751  0.25000000  0.95944105  1
