# generated using pymatgen
data_LiF
_symmetry_space_group_name_H-M   'P 1'
_cell_length_a   7.92010188
_cell_length_b   11.98087605
_cell_length_c   9.99707977
_cell_angle_alpha   90.00000000
_cell_angle_beta   90.00000000
_cell_angle_gamma   90.00000000
_symmetry_Int_Tables_number   1
_chemical_formula_structural   LiF
_chemical_formula_sum   'Li40 F40'
_cell_volume   948.62048919
_cell_formula_units_Z   40
loop_
 _symmetry_equiv_pos_site_id
 _symmetry_equiv_pos_as_xyz
  1  'x, y, z'
loop_
 _atom_site_type_symbol
 _atom_site_label
 _atom_site_symmetry_multiplicity
 _atom_site_fract_x
 _atom_site_fract_y
 _atom_site_fract_z
 _atom_site_occupancy
  F  F0  1  0.49919971  0.31630247  0.35177384  1
  F  F1  1  0.00080029  0.68369753  0.85177384  1
  F  F2  1  0.50080029  0.81630247  0.64822616  1
  F  F3  1  0.99919971  0.18369753  0.14822616  1
  F  F4  1  0.50080029  0.68369753  0.64822616  1
  F  F5  1  0.99919971  0.31630247  0.14822616  1
  F  F6  1  0.49919971  0.18369753  0.35177384  1
  F  F7  1  0.00080029  0.81630247  0.85177384  1
  F  F8  1  0.74026916  0.57433084  0.17131919  1
  F  F9  1  0.75973084  0.42566916  0.67131919  1
  F  F10  1  0.25973084  0.07433084  0.82868081  1
  F  F11  1  0.24026916  0.92566916  0.32868081  1
  F  F12  1  0.25973084  0.42566916  0.82868081  1
  F  F13  1  0.24026916  0.57433084  0.32868081  1
  F  F14  1  0.74026916  0.92566916  0.17131919  1
  F  F15  1  0.75973084  0.07433084  0.67131919  1
  F  F16  1  0.50141682  0.13573920  0.85000566  1
  F  F17  1  0.99858318  0.86426080  0.35000566  1
  F  F18  1  0.49858318  0.63573920  0.14999434  1
  F  F19  1  0.00141682  0.36426080  0.64999434  1
  F  F20  1  0.49858318  0.86426080  0.14999434  1
  F  F21  1  0.00141682  0.13573920  0.64999434  1
  F  F22  1  0.50141682  0.36426080  0.85000566  1
  F  F23  1  0.99858318  0.63573920  0.35000566  1
  F  F24  1  0.56471403  0.25000000  0.34377915  1
  F  F25  1  0.93528597  0.75000000  0.84377915  1
  F  F26  1  0.43528597  0.75000000  0.65622085  1
  F  F27  1  0.06471403  0.25000000  0.15622085  1
  F  F28  1  0.07451372  0.11510260  0.84860920  1
  F  F29  1  0.42548628  0.88489740  0.34860920  1
  F  F30  1  0.92548628  0.61510260  0.15139080  1
  F  F31  1  0.57451372  0.38489740  0.65139080  1
  F  F32  1  0.92548628  0.88489740  0.15139080  1
  F  F33  1  0.57451372  0.11510260  0.65139080  1
  F  F34  1  0.07451372  0.38489740  0.84860920  1
  F  F35  1  0.42548628  0.61510260  0.34860920  1
  F  F36  1  0.59325057  0.25000000  0.79990721  1
  F  F37  1  0.90674943  0.75000000  0.29990721  1
  F  F38  1  0.40674943  0.75000000  0.20009279  1
  F  F39  1  0.09325057  0.25000000  0.70009279  1
  Li  Li40  1  0.36427035  0.04017783  0.83773518  1
  Li  Li41  1  0.13572965  -0.04017783  1.33773518  1
  Li  Li42  1  -0.36427035  0.54017783  -0.83773518  1
  Li  Li43  1  0.86427035  0.45982217  -0.33773518  1
  Li  Li44  1  -0.36427035  -0.04017783  -0.83773518  1
  Li  Li45  1  0.86427035  0.04017783  -0.33773518  1
  Li  Li46  1  0.36427035  0.45982217  0.83773518  1
  Li  Li47  1  0.13572965  0.54017783  1.33773518  1
  Li  Li48  1  0.17375742  0.25000000  0.59137960  1
  Li  Li49  1  0.32624258  0.75000000  0.09137960  1
  Li  Li50  1  0.82624258  0.75000000  0.40862040  1
  Li  Li51  1  0.67375742  0.25000000  0.90862040  1
  Li  Li52  1  0.00000000  0.00000000  0.00000000  1
  Li  Li53  1  0.50000000  0.00000000  0.50000000  1
  Li  Li54  1  0.00000000  0.50000000  0.00000000  1
  Li  Li55  1  0.50000000  0.50000000  0.50000000  1
  Li  Li56  1  0.12764986  0.60600487  0.48262934  1
  Li  Li57  1  0.37235014  0.39399513  0.98262934  1
  Li  Li58  1  0.87235014  0.10600487  0.51737066  1
  Li  Li59  1  0.62764986  0.89399513  0.01737066  1
  Li  Li60  1  0.87235014  0.39399513  0.51737066  1
  Li  Li61  1  0.62764986  0.60600487  0.01737066  1
  Li  Li62  1  0.12764986  0.89399513  0.48262934  1
  Li  Li63  1  0.37235014  0.10600487  0.98262934  1
  Li  Li64  1  0.37391399  0.25000000  0.12023017  1
  Li  Li65  1  0.12608601  0.75000000  0.62023017  1
  Li  Li66  1  0.62608601  0.75000000  0.87976983  1
  Li  Li67  1  0.87391399  0.25000000  0.37976983  1
  Li  Li68  1  0.14750305  0.81718835  0.09529441  1
  Li  Li69  1  0.35249695  0.18281165  0.59529441  1
  Li  Li70  1  0.85249695  0.31718835  0.90470559  1
  Li  Li71  1  0.64750305  0.68281165  0.40470559  1
  Li  Li72  1  0.85249695  0.18281165  0.90470559  1
  Li  Li73  1  0.64750305  0.81718835  0.40470559  1
  Li  Li74  1  0.14750305  0.68281165  0.09529441  1
  Li  Li75  1  0.35249695  0.31718835  0.59529441  1
  Li  Li76  1  0.00000000  0.00000000  0.50000000  1
  Li  Li77  1  0.50000000  0.00000000  0.00000000  1
  Li  Li78  1  0.00000000  0.50000000  0.50000000  1
  Li  Li79  1  0.50000000  0.50000000  0.00000000  1
