# generated using pymatgen
data_LiF
_symmetry_space_group_name_H-M   'P 1'
_cell_length_a   6.31282310
_cell_length_b   6.31282310
_cell_length_c   16.60894372
_cell_angle_alpha   90.00000000
_cell_angle_beta   90.00000000
_cell_angle_gamma   120.00000000
_symmetry_Int_Tables_number   1
_chemical_formula_structural   LiF
_chemical_formula_sum   'Li26 F26'
_cell_volume   573.21808580
_cell_formula_units_Z   26
loop_
 _symmetry_equiv_pos_site_id
 _symmetry_equiv_pos_as_xyz
  1  'x, y, z'
loop_
 _atom_site_type_symbol
 _atom_site_label
 _atom_site_symmetry_multiplicity
 _atom_site_fract_x
 _atom_site_fract_y
 _atom_site_fract_z
 _atom_site_occupancy
  F  F0  1  0.66666667  0.33333333  0.00000000  1
  F  F1  1  0.00000000  0.00000000  0.50000000  1
  F  F2  1  0.59312997  0.76556402  0.42251131  1
  F  F3  1  0.23443598  0.82756594  0.42251131  1
  F  F4  1  0.17243406  0.40687003  0.42251131  1
  F  F5  1  0.23443598  0.40687003  0.57748869  1
  F  F6  1  0.17243406  0.76556402  0.57748869  1
  F  F7  1  0.59312997  0.82756594  0.57748869  1
  F  F8  1  0.35935428  0.24203739  0.88269931  1
  F  F9  1  0.75796261  0.11731689  0.88269931  1
  F  F10  1  0.88268311  0.64064572  0.88269931  1
  F  F11  1  0.75796261  0.64064572  0.11730069  1
  F  F12  1  0.88268311  0.24203739  0.11730069  1
  F  F13  1  0.35935428  0.11731689  0.11730069  1
  F  F14  1  0.16835571  0.96869297  0.40034035  1
  F  F15  1  0.03130703  0.19966274  0.40034035  1
  F  F16  1  0.80033726  0.83164429  0.40034035  1
  F  F17  1  0.03130703  0.83164429  0.59965965  1
  F  F18  1  0.80033726  0.96869297  0.59965965  1
  F  F19  1  0.16835571  0.19966274  0.59965965  1
  F  F20  1  0.66666667  0.33333333  0.84281704  1
  F  F21  1  0.66666667  0.33333333  0.15718296  1
  F  F22  1  0.44200745  0.55799255  0.50000000  1
  F  F23  1  0.44200745  0.88401490  0.50000000  1
  F  F24  1  0.11598510  0.55799255  0.50000000  1
  F  F25  1  0.33333333  0.66666667  0.00000000  1
  Li  Li26  1  0.29495820  0.36899511  0.27039359  1
  Li  Li27  1  -0.36899511  -0.07403691  0.27039359  1
  Li  Li28  1  0.07403691  -0.29495820  0.27039359  1
  Li  Li29  1  -0.36899511  -0.29495820  -0.27039359  1
  Li  Li30  1  0.07403691  0.36899511  -0.27039359  1
  Li  Li31  1  0.29495820  -0.07403691  -0.27039359  1
  Li  Li32  1  0.66666667  0.33333333  0.50000000  1
  Li  Li33  1  0.00000000  0.00000000  0.00000000  1
  Li  Li34  1  0.85884803  0.53163398  0.69013084  1
  Li  Li35  1  0.46836602  0.32721405  0.69013084  1
  Li  Li36  1  0.67278595  0.14115197  0.69013084  1
  Li  Li37  1  0.46836602  0.14115197  0.30986916  1
  Li  Li38  1  0.67278595  0.53163398  0.30986916  1
  Li  Li39  1  0.85884803  0.32721405  0.30986916  1
  Li  Li40  1  0.73861543  0.03116271  0.55086724  1
  Li  Li41  1  0.96883729  0.70745271  0.55086724  1
  Li  Li42  1  0.29254729  0.26138457  0.55086724  1
  Li  Li43  1  0.96883729  0.26138457  0.44913276  1
  Li  Li44  1  0.29254729  0.03116271  0.44913276  1
  Li  Li45  1  0.73861543  0.70745271  0.44913276  1
  Li  Li46  1  0.24272348  0.94762039  0.20878065  1
  Li  Li47  1  0.05237961  0.29510310  0.20878065  1
  Li  Li48  1  0.70489690  0.75727652  0.20878065  1
  Li  Li49  1  0.05237961  0.75727652  0.79121935  1
  Li  Li50  1  0.70489690  0.94762039  0.79121935  1
  Li  Li51  1  0.24272348  0.29510310  0.79121935  1
