# generated using pymatgen
data_Li2Sb2Te4P2Se
_symmetry_space_group_name_H-M   'P 1'
_cell_length_a   5.13480055
_cell_length_b   5.33457897
_cell_length_c   7.01483784
_cell_angle_alpha   94.12430368
_cell_angle_beta   99.23037671
_cell_angle_gamma   106.86573911
_symmetry_Int_Tables_number   1
_chemical_formula_structural   Li2Sb2Te4P2Se
_chemical_formula_sum   'Li2 Sb2 Te4 P2 Se1'
_cell_volume   180.07154066
_cell_formula_units_Z   1
loop_
 _symmetry_equiv_pos_site_id
 _symmetry_equiv_pos_as_xyz
  1  'x, y, z'
loop_
 _atom_site_type_symbol
 _atom_site_label
 _atom_site_symmetry_multiplicity
 _atom_site_fract_x
 _atom_site_fract_y
 _atom_site_fract_z
 _atom_site_occupancy
  Se  Se0  1  0.00000000  0.00000000  0.00000000  1
  Te  Te1  1  0.50000000  0.50000000  0.50000000  1
  Te  Te2  1  0.25000000  0.25000000  0.25000000  1
  Te  Te3  1  0.75000000  0.25000000  0.00000000  1
  Te  Te4  1  0.25000000  0.75000000  0.50000000  1
  P  P5  1  0.02673153  0.00614757  0.49182472  1
  P  P6  1  0.08108393  0.75959660  0.55634877  1
  Li  Li7  1  0.17617255  0.58025659  0.15581325  1
  Li  Li8  1  0.96185584  0.03361897  0.65035547  1
  Sb  Sb9  1  0.22892613  0.53955791  0.66750948  1
  Sb  Sb10  1  0.86688851  0.80383546  0.56048018  1
