# generated using pymatgen
data_LiF
_symmetry_space_group_name_H-M   'P 1'
_cell_length_a   9.55298838
_cell_length_b   9.17701002
_cell_length_c   13.61660761
_cell_angle_alpha   90.00000000
_cell_angle_beta   90.00000000
_cell_angle_gamma   90.00000000
_symmetry_Int_Tables_number   1
_chemical_formula_structural   LiF
_chemical_formula_sum   'Li42 F42'
_cell_volume   1193.73898595
_cell_formula_units_Z   42
loop_
 _symmetry_equiv_pos_site_id
 _symmetry_equiv_pos_as_xyz
  1  'x, y, z'
loop_
 _atom_site_type_symbol
 _atom_site_label
 _atom_site_symmetry_multiplicity
 _atom_site_fract_x
 _atom_site_fract_y
 _atom_site_fract_z
 _atom_site_occupancy
  F  F0  1  0.53072132  0.83171846  0.30976465  1
  F  F1  1  0.46927868  0.16828154  0.30976465  1
  F  F2  1  0.96927868  0.33171846  0.69023535  1
  F  F3  1  0.03072132  0.66828154  0.69023535  1
  F  F4  1  0.46927868  0.16828154  0.69023535  1
  F  F5  1  0.53072132  0.83171846  0.69023535  1
  F  F6  1  0.03072132  0.66828154  0.30976465  1
  F  F7  1  0.96927868  0.33171846  0.30976465  1
  F  F8  1  0.00000000  0.00000000  0.60700165  1
  F  F9  1  0.50000000  0.50000000  0.39299835  1
  F  F10  1  0.00000000  0.00000000  0.39299835  1
  F  F11  1  0.50000000  0.50000000  0.60700165  1
  F  F12  1  0.01934674  0.42576067  0.18659833  1
  F  F13  1  0.98065326  0.57423933  0.18659833  1
  F  F14  1  0.48065326  0.92576067  0.81340167  1
  F  F15  1  0.51934674  0.07423933  0.81340167  1
  F  F16  1  0.98065326  0.57423933  0.81340167  1
  F  F17  1  0.01934674  0.42576067  0.81340167  1
  F  F18  1  0.51934674  0.07423933  0.18659833  1
  F  F19  1  0.48065326  0.92576067  0.18659833  1
  F  F20  1  0.91726974  0.58559017  0.50000000  1
  F  F21  1  0.08273026  0.41440983  0.50000000  1
  F  F22  1  0.58273026  0.08559017  0.50000000  1
  F  F23  1  0.41726974  0.91440983  0.50000000  1
  F  F24  1  0.11875923  0.13818584  0.70303046  1
  F  F25  1  0.88124077  0.86181416  0.70303046  1
  F  F26  1  0.38124077  0.63818584  0.29696954  1
  F  F27  1  0.61875923  0.36181416  0.29696954  1
  F  F28  1  0.88124077  0.86181416  0.29696954  1
  F  F29  1  0.11875923  0.13818584  0.29696954  1
  F  F30  1  0.61875923  0.36181416  0.70303046  1
  F  F31  1  0.38124077  0.63818584  0.70303046  1
  F  F32  1  0.28189871  0.26567610  0.23078529  1
  F  F33  1  0.71810129  0.73432390  0.23078529  1
  F  F34  1  0.21810129  0.76567610  0.76921471  1
  F  F35  1  0.78189871  0.23432390  0.76921471  1
  F  F36  1  0.71810129  0.73432390  0.76921471  1
  F  F37  1  0.28189871  0.26567610  0.76921471  1
  F  F38  1  0.78189871  0.23432390  0.23078529  1
  F  F39  1  0.21810129  0.76567610  0.23078529  1
  F  F40  1  0.00000000  0.50000000  0.00000000  1
  F  F41  1  0.50000000  0.00000000  0.00000000  1
  Li  Li42  1  0.00000000  0.50000000  0.50000000  1
  Li  Li43  1  0.50000000  0.00000000  0.50000000  1
  Li  Li44  1  0.87743166  0.24524225  0.44309358  1
  Li  Li45  1  -0.87743166  -0.24524225  0.44309358  1
  Li  Li46  1  -0.37743166  0.74524225  -0.44309358  1
  Li  Li47  1  1.37743166  0.25475775  -0.44309358  1
  Li  Li48  1  -0.87743166  -0.24524225  -0.44309358  1
  Li  Li49  1  0.87743166  0.24524225  -0.44309358  1
  Li  Li50  1  1.37743166  0.25475775  0.44309358  1
  Li  Li51  1  -0.37743166  0.74524225  0.44309358  1
  Li  Li52  1  0.60088157  0.12098317  0.15762511  1
  Li  Li53  1  0.39911843  0.87901683  0.15762511  1
  Li  Li54  1  0.89911843  0.62098317  0.84237489  1
  Li  Li55  1  0.10088157  0.37901683  0.84237489  1
  Li  Li56  1  0.39911843  0.87901683  0.84237489  1
  Li  Li57  1  0.60088157  0.12098317  0.84237489  1
  Li  Li58  1  0.10088157  0.37901683  0.15762511  1
  Li  Li59  1  0.89911843  0.62098317  0.15762511  1
  Li  Li60  1  0.81898390  0.77645324  -0.00000000  1
  Li  Li61  1  0.18101610  0.22354676  0.00000000  1
  Li  Li62  1  0.68101610  0.27645324  0.00000000  1
  Li  Li63  1  0.31898390  0.72354676  0.00000000  1
  Li  Li64  1  0.42319556  0.35709881  0.81005059  1
  Li  Li65  1  0.57680444  0.64290119  0.81005059  1
  Li  Li66  1  0.07680444  0.85709881  0.18994941  1
  Li  Li67  1  0.92319556  0.14290119  0.18994941  1
  Li  Li68  1  0.57680444  0.64290119  0.18994941  1
  Li  Li69  1  0.42319556  0.35709881  0.18994941  1
  Li  Li70  1  0.92319556  0.14290119  0.81005059  1
  Li  Li71  1  0.07680444  0.85709881  0.81005059  1
  Li  Li72  1  0.00000000  0.00000000  0.00000000  1
  Li  Li73  1  0.50000000  0.50000000  0.00000000  1
  Li  Li74  1  0.29023422  0.12522000  0.59092217  1
  Li  Li75  1  0.70976578  0.87478000  0.59092217  1
  Li  Li76  1  0.20976578  0.62522000  0.40907783  1
  Li  Li77  1  0.79023422  0.37478000  0.40907783  1
  Li  Li78  1  0.70976578  0.87478000  0.40907783  1
  Li  Li79  1  0.29023422  0.12522000  0.40907783  1
  Li  Li80  1  0.79023422  0.37478000  0.59092217  1
  Li  Li81  1  0.20976578  0.62522000  0.59092217  1
  Li  Li82  1  0.00000000  0.00000000  0.50000000  1
  Li  Li83  1  0.50000000  0.50000000  0.50000000  1
