# generated using pymatgen
data_LiF
_symmetry_space_group_name_H-M   'P 1'
_cell_length_a   5.98589313
_cell_length_b   5.98589313
_cell_length_c   10.44788081
_cell_angle_alpha   90.00000000
_cell_angle_beta   90.00000000
_cell_angle_gamma   120.00000000
_symmetry_Int_Tables_number   1
_chemical_formula_structural   LiF
_chemical_formula_sum   'Li14 F14'
_cell_volume   324.20279850
_cell_formula_units_Z   14
loop_
 _symmetry_equiv_pos_site_id
 _symmetry_equiv_pos_as_xyz
  1  'x, y, z'
loop_
 _atom_site_type_symbol
 _atom_site_label
 _atom_site_symmetry_multiplicity
 _atom_site_fract_x
 _atom_site_fract_y
 _atom_site_fract_z
 _atom_site_occupancy
  F  F0  1  0.81072510  1.62145020  0.25000000  1
  F  F1  1  -1.62145020  -0.81072510  0.25000000  1
  F  F2  1  0.81072510  -0.81072510  0.25000000  1
  F  F3  1  -0.81072510  -1.62145020  0.75000000  1
  F  F4  1  1.62145020  0.81072510  0.75000000  1
  F  F5  1  -0.81072510  0.81072510  0.75000000  1
  F  F6  1  0.04321884  0.08643768  0.25000000  1
  F  F7  1  0.91356232  0.95678116  0.25000000  1
  F  F8  1  0.04321884  0.95678116  0.25000000  1
  F  F9  1  0.95678116  0.91356232  0.75000000  1
  F  F10  1  0.08643768  0.04321884  0.75000000  1
  F  F11  1  0.95678116  0.04321884  0.75000000  1
  F  F12  1  0.00000000  0.00000000  0.00000000  1
  F  F13  1  0.00000000  0.00000000  0.50000000  1
  Li  Li14  1  0.00000000  0.00000000  0.11930093  1
  Li  Li15  1  0.00000000  0.00000000  0.61930093  1
  Li  Li16  1  0.00000000  0.00000000  0.88069907  1
  Li  Li17  1  0.00000000  0.00000000  0.38069907  1
  Li  Li18  1  0.54785009  0.09570017  0.25000000  1
  Li  Li19  1  0.90429983  0.45214991  0.25000000  1
  Li  Li20  1  0.54785009  0.45214991  0.25000000  1
  Li  Li21  1  0.45214991  0.90429983  0.75000000  1
  Li  Li22  1  0.09570017  0.54785009  0.75000000  1
  Li  Li23  1  0.45214991  0.54785009  0.75000000  1
  Li  Li24  1  0.33333333  0.66666667  0.38199963  1
  Li  Li25  1  0.66666667  0.33333333  0.88199963  1
  Li  Li26  1  0.66666667  0.33333333  0.61800037  1
  Li  Li27  1  0.33333333  0.66666667  0.11800037  1
