# generated using pymatgen
data_LiF
_symmetry_space_group_name_H-M   'P 1'
_cell_length_a   9.10595206
_cell_length_b   5.75466647
_cell_length_c   13.95853013
_cell_angle_alpha   90.00000000
_cell_angle_beta   90.00000000
_cell_angle_gamma   90.00000000
_symmetry_Int_Tables_number   1
_chemical_formula_structural   LiF
_chemical_formula_sum   'Li32 F32'
_cell_volume   731.45094577
_cell_formula_units_Z   32
loop_
 _symmetry_equiv_pos_site_id
 _symmetry_equiv_pos_as_xyz
  1  'x, y, z'
loop_
 _atom_site_type_symbol
 _atom_site_label
 _atom_site_symmetry_multiplicity
 _atom_site_fract_x
 _atom_site_fract_y
 _atom_site_fract_z
 _atom_site_occupancy
  F  F0  1  0.97389158  0.40843458  0.29952455  1
  F  F1  1  0.02610842  0.59156542  0.29952455  1
  F  F2  1  0.52610842  0.90843458  0.70047545  1
  F  F3  1  0.47389158  0.09156542  0.70047545  1
  F  F4  1  0.02610842  0.59156542  0.70047545  1
  F  F5  1  0.97389158  0.40843458  0.70047545  1
  F  F6  1  0.47389158  0.09156542  0.29952455  1
  F  F7  1  0.52610842  0.90843458  0.29952455  1
  F  F8  1  0.96176190  0.60425033  0.50000000  1
  F  F9  1  0.03823810  0.39574967  0.50000000  1
  F  F10  1  0.53823810  0.10425033  0.50000000  1
  F  F11  1  0.46176190  0.89574967  0.50000000  1
  F  F12  1  0.00000000  0.00000000  0.50000000  1
  F  F13  1  0.50000000  0.50000000  0.50000000  1
  F  F14  1  0.33484979  0.52190347  0.95391886  1
  F  F15  1  0.66515021  0.47809653  0.95391886  1
  F  F16  1  0.16515021  0.02190347  0.04608114  1
  F  F17  1  0.83484979  0.97809653  0.04608114  1
  F  F18  1  0.66515021  0.47809653  0.04608114  1
  F  F19  1  0.33484979  0.52190347  0.04608114  1
  F  F20  1  0.83484979  0.97809653  0.95391886  1
  F  F21  1  0.16515021  0.02190347  0.95391886  1
  F  F22  1  0.55281990  0.77520743  0.38929230  1
  F  F23  1  0.44718010  0.22479257  0.38929230  1
  F  F24  1  0.94718010  0.27520743  0.61070770  1
  F  F25  1  0.05281990  0.72479257  0.61070770  1
  F  F26  1  0.44718010  0.22479257  0.61070770  1
  F  F27  1  0.55281990  0.77520743  0.61070770  1
  F  F28  1  0.05281990  0.72479257  0.38929230  1
  F  F29  1  0.94718010  0.27520743  0.38929230  1
  F  F30  1  0.00000000  0.50000000  0.50000000  1
  F  F31  1  0.50000000  0.00000000  0.50000000  1
  Li  Li32  1  0.24450256  0.08388348  0.43248779  1
  Li  Li33  1  -0.24450256  -0.08388348  0.43248779  1
  Li  Li34  1  0.25549744  0.58388348  -0.43248779  1
  Li  Li35  1  0.74450256  0.41611652  -0.43248779  1
  Li  Li36  1  -0.24450256  -0.08388348  -0.43248779  1
  Li  Li37  1  0.24450256  0.08388348  -0.43248779  1
  Li  Li38  1  0.74450256  0.41611652  0.43248779  1
  Li  Li39  1  0.25549744  0.58388348  0.43248779  1
  Li  Li40  1  0.58822078  0.99537321  0.60837194  1
  Li  Li41  1  0.41177922  0.00462679  0.60837194  1
  Li  Li42  1  0.91177922  0.49537321  0.39162806  1
  Li  Li43  1  0.08822078  0.50462679  0.39162806  1
  Li  Li44  1  0.41177922  0.00462679  0.39162806  1
  Li  Li45  1  0.58822078  0.99537321  0.39162806  1
  Li  Li46  1  0.08822078  0.50462679  0.60837194  1
  Li  Li47  1  0.91177922  0.49537321  0.60837194  1
  Li  Li48  1  0.45879540  0.77927034  0.10324518  1
  Li  Li49  1  0.54120460  0.22072966  0.10324518  1
  Li  Li50  1  0.04120460  0.27927034  0.89675482  1
  Li  Li51  1  0.95879540  0.72072966  0.89675482  1
  Li  Li52  1  0.54120460  0.22072966  0.89675482  1
  Li  Li53  1  0.45879540  0.77927034  0.89675482  1
  Li  Li54  1  0.95879540  0.72072966  0.10324518  1
  Li  Li55  1  0.04120460  0.27927034  0.10324518  1
  Li  Li56  1  0.40138389  0.97918801  0.18099717  1
  Li  Li57  1  0.59861611  0.02081199  0.18099717  1
  Li  Li58  1  0.09861611  0.47918801  0.81900283  1
  Li  Li59  1  0.90138389  0.52081199  0.81900283  1
  Li  Li60  1  0.59861611  0.02081199  0.81900283  1
  Li  Li61  1  0.40138389  0.97918801  0.81900283  1
  Li  Li62  1  0.90138389  0.52081199  0.18099717  1
  Li  Li63  1  0.09861611  0.47918801  0.18099717  1
