# generated using pymatgen
data_LiF
_symmetry_space_group_name_H-M   'P 1'
_cell_length_a   12.65729090
_cell_length_b   6.85271197
_cell_length_c   9.32632595
_cell_angle_alpha   90.00000000
_cell_angle_beta   90.00000000
_cell_angle_gamma   90.00000000
_symmetry_Int_Tables_number   1
_chemical_formula_structural   LiF
_chemical_formula_sum   'Li34 F34'
_cell_volume   808.93537742
_cell_formula_units_Z   34
loop_
 _symmetry_equiv_pos_site_id
 _symmetry_equiv_pos_as_xyz
  1  'x, y, z'
loop_
 _atom_site_type_symbol
 _atom_site_label
 _atom_site_symmetry_multiplicity
 _atom_site_fract_x
 _atom_site_fract_y
 _atom_site_fract_z
 _atom_site_occupancy
  F  F0  1  0.56759585  0.81145298  0.50000000  1
  F  F1  1  0.43240415  0.18854702  0.50000000  1
  F  F2  1  0.93240415  0.31145298  0.50000000  1
  F  F3  1  0.06759585  0.68854702  0.50000000  1
  F  F4  1  0.85184782  0.32554179  0.36028892  1
  F  F5  1  0.14815218  0.67445821  0.36028892  1
  F  F6  1  0.64815218  0.82554179  0.63971108  1
  F  F7  1  0.35184782  0.17445821  0.63971108  1
  F  F8  1  0.14815218  0.67445821  0.63971108  1
  F  F9  1  0.85184782  0.32554179  0.63971108  1
  F  F10  1  0.35184782  0.17445821  0.36028892  1
  F  F11  1  0.64815218  0.82554179  0.36028892  1
  F  F12  1  0.38629068  0.58490923  0.29067331  1
  F  F13  1  0.61370932  0.41509077  0.29067331  1
  F  F14  1  0.11370932  0.08490923  0.70932669  1
  F  F15  1  0.88629068  0.91509077  0.70932669  1
  F  F16  1  0.61370932  0.41509077  0.70932669  1
  F  F17  1  0.38629068  0.58490923  0.70932669  1
  F  F18  1  0.88629068  0.91509077  0.29067331  1
  F  F19  1  0.11370932  0.08490923  0.29067331  1
  F  F20  1  0.71825048  0.06655106  0.94050597  1
  F  F21  1  0.28174952  0.93344894  0.94050597  1
  F  F22  1  0.78174952  0.56655106  0.05949403  1
  F  F23  1  0.21825048  0.43344894  0.05949403  1
  F  F24  1  0.28174952  0.93344894  0.05949403  1
  F  F25  1  0.71825048  0.06655106  0.05949403  1
  F  F26  1  0.21825048  0.43344894  0.94050597  1
  F  F27  1  0.78174952  0.56655106  0.94050597  1
  F  F28  1  0.00000000  0.00000000  0.50000000  1
  F  F29  1  0.50000000  0.50000000  0.50000000  1
  F  F30  1  0.00000000  0.00000000  0.00000000  1
  F  F31  1  0.50000000  0.50000000  0.00000000  1
  F  F32  1  0.00000000  0.50000000  0.50000000  1
  F  F33  1  0.50000000  0.00000000  0.50000000  1
  Li  Li34  1  0.27421833  0.74032314  0.00000000  1
  Li  Li35  1  0.72578167  0.25967686  0.00000000  1
  Li  Li36  1  0.22578167  0.24032314  -0.00000000  1
  Li  Li37  1  0.77421833  0.75967686  0.00000000  1
  Li  Li38  1  0.33134111  0.99310049  0.76648130  1
  Li  Li39  1  -0.33134111  -0.99310049  0.76648130  1
  Li  Li40  1  0.16865889  1.49310049  -0.76648130  1
  Li  Li41  1  0.83134111  -0.49310049  -0.76648130  1
  Li  Li42  1  -0.33134111  -0.99310049  -0.76648130  1
  Li  Li43  1  0.33134111  0.99310049  -0.76648130  1
  Li  Li44  1  0.83134111  -0.49310049  0.76648130  1
  Li  Li45  1  0.16865889  1.49310049  0.76648130  1
  Li  Li46  1  0.00000000  0.00000000  0.62402538  1
  Li  Li47  1  0.50000000  0.50000000  0.37597462  1
  Li  Li48  1  0.00000000  0.00000000  0.37597462  1
  Li  Li49  1  0.50000000  0.50000000  0.62402538  1
  Li  Li50  1  0.00000000  0.50000000  -0.00000000  1
  Li  Li51  1  0.50000000  0.00000000  0.00000000  1
  Li  Li52  1  0.65627766  0.54563808  0.22284859  1
  Li  Li53  1  0.34372234  0.45436192  0.22284859  1
  Li  Li54  1  0.84372234  0.04563808  0.77715141  1
  Li  Li55  1  0.15627766  0.95436192  0.77715141  1
  Li  Li56  1  0.34372234  0.45436192  0.77715141  1
  Li  Li57  1  0.65627766  0.54563808  0.77715141  1
  Li  Li58  1  0.15627766  0.95436192  0.22284859  1
  Li  Li59  1  0.84372234  0.04563808  0.22284859  1
  Li  Li60  1  0.37284421  0.41455922  0.36981415  1
  Li  Li61  1  0.62715579  0.58544078  0.36981415  1
  Li  Li62  1  0.12715579  0.91455922  0.63018585  1
  Li  Li63  1  0.87284421  0.08544078  0.63018585  1
  Li  Li64  1  0.62715579  0.58544078  0.63018585  1
  Li  Li65  1  0.37284421  0.41455922  0.63018585  1
  Li  Li66  1  0.87284421  0.08544078  0.36981415  1
  Li  Li67  1  0.12715579  0.91455922  0.36981415  1
