# generated using pymatgen
data_Li2Y2As2P3Se
_symmetry_space_group_name_H-M   'P 1'
_cell_length_a   5.33310686
_cell_length_b   5.48031971
_cell_length_c   7.09824242
_cell_angle_alpha   93.97891032
_cell_angle_beta   97.80407666
_cell_angle_gamma   104.63117015
_symmetry_Int_Tables_number   1
_chemical_formula_structural   Li2Y2As2P3Se
_chemical_formula_sum   'Li2 Y2 As2 P3 Se1'
_cell_volume   197.70771480
_cell_formula_units_Z   1
loop_
 _symmetry_equiv_pos_site_id
 _symmetry_equiv_pos_as_xyz
  1  'x, y, z'
loop_
 _atom_site_type_symbol
 _atom_site_label
 _atom_site_symmetry_multiplicity
 _atom_site_fract_x
 _atom_site_fract_y
 _atom_site_fract_z
 _atom_site_occupancy
  Se  Se0  1  0.00000000  0.00000000  0.00000000  1
  P  P1  1  0.50000000  0.50000000  0.50000000  1
  P  P2  1  0.50000000  0.50000000  0.00000000  1
  P  P3  1  0.50000000  0.00000000  0.50000000  1
  As  As4  1  0.00000000  0.50000000  0.50000000  1
  As  As5  1  0.95008591  0.25546618  0.55168837  1
  Li  Li6  1  0.34882395  0.00889625  0.42595420  1
  Li  Li7  1  0.50023064  0.19052039  0.33403772  1
  Y  Y8  1  0.25608800  0.89932235  0.91208026  1
  Y  Y9  1  0.81462988  0.78658300  0.20093332  1
