# generated using pymatgen
data_LiF
_symmetry_space_group_name_H-M   'P 1'
_cell_length_a   5.07514092
_cell_length_b   5.07514092
_cell_length_c   16.78333663
_cell_angle_alpha   90.00000000
_cell_angle_beta   90.00000000
_cell_angle_gamma   120.00000000
_symmetry_Int_Tables_number   1
_chemical_formula_structural   LiF
_chemical_formula_sum   'Li15 F15'
_cell_volume   374.37354164
_cell_formula_units_Z   15
loop_
 _symmetry_equiv_pos_site_id
 _symmetry_equiv_pos_as_xyz
  1  'x, y, z'
loop_
 _atom_site_type_symbol
 _atom_site_label
 _atom_site_symmetry_multiplicity
 _atom_site_fract_x
 _atom_site_fract_y
 _atom_site_fract_z
 _atom_site_occupancy
  F  F0  1  0.66666667  0.33333333  0.50000000  1
  F  F1  1  0.00000000  0.00000000  0.50000000  1
  F  F2  1  0.58476337  0.30355288  0.75971950  1
  F  F3  1  0.69644712  0.28121049  0.75971950  1
  F  F4  1  0.71878951  0.41523663  0.75971950  1
  F  F5  1  0.69644712  0.41523663  0.24028050  1
  F  F6  1  0.71878951  0.30355288  0.24028050  1
  F  F7  1  0.58476337  0.28121049  0.24028050  1
  F  F8  1  0.64271495  0.01977970  0.15199658  1
  F  F9  1  0.98022030  0.62293525  0.15199658  1
  F  F10  1  0.37706475  0.35728505  0.15199658  1
  F  F11  1  0.98022030  0.35728505  0.84800342  1
  F  F12  1  0.37706475  0.01977970  0.84800342  1
  F  F13  1  0.64271495  0.62293525  0.84800342  1
  F  F14  1  0.00000000  0.00000000  0.00000000  1
  Li  Li15  1  0.80501529  0.52892679  0.10268878  1
  Li  Li16  1  -0.52892679  0.27608849  0.10268878  1
  Li  Li17  1  -0.27608849  -0.80501529  0.10268878  1
  Li  Li18  1  -0.52892679  -0.80501529  -0.10268878  1
  Li  Li19  1  -0.27608849  0.52892679  -0.10268878  1
  Li  Li20  1  0.80501529  0.27608849  -0.10268878  1
  Li  Li21  1  0.33333333  0.66666667  0.00000000  1
  Li  Li22  1  0.81956480  0.18043520  0.50000000  1
  Li  Li23  1  0.81956480  0.63912961  0.50000000  1
  Li  Li24  1  0.36087039  0.18043520  0.50000000  1
  Li  Li25  1  0.66666667  0.33333333  0.00000000  1
  Li  Li26  1  0.33333333  0.66666667  0.50000000  1
  Li  Li27  1  0.14803798  0.85196202  0.00000000  1
  Li  Li28  1  0.14803798  0.29607596  0.00000000  1
  Li  Li29  1  0.70392404  0.85196202  0.00000000  1
