# generated using pymatgen
data_Li3Y2As4P3Se
_symmetry_space_group_name_H-M   'P 1'
_cell_length_a   5.34340230
_cell_length_b   5.56335979
_cell_length_c   6.95724211
_cell_angle_alpha   93.27681542
_cell_angle_beta   97.58931076
_cell_angle_gamma   103.70874306
_symmetry_Int_Tables_number   1
_chemical_formula_structural   Li3Y2As4P3Se
_chemical_formula_sum   'Li3 Y2 As4 P3 Se1'
_cell_volume   198.32598484
_cell_formula_units_Z   1
loop_
 _symmetry_equiv_pos_site_id
 _symmetry_equiv_pos_as_xyz
  1  'x, y, z'
loop_
 _atom_site_type_symbol
 _atom_site_label
 _atom_site_symmetry_multiplicity
 _atom_site_fract_x
 _atom_site_fract_y
 _atom_site_fract_z
 _atom_site_occupancy
  Se  Se0  1  0.00000000  0.00000000  0.00000000  1
  P  P1  1  0.50000000  0.50000000  0.50000000  1
  P  P2  1  0.25000000  0.25000000  0.25000000  1
  P  P3  1  0.75000000  0.25000000  0.00000000  1
  As  As4  1  0.25000000  0.75000000  0.50000000  1
  As  As5  1  0.15962145  0.44670481  0.99614506  1
  As  As6  1  0.12461886  0.65985123  0.01511442  1
  As  As7  1  0.97119859  0.21994216  0.78836198  1
  Li  Li8  1  0.18287179  0.37036245  0.94454658  1
  Li  Li9  1  0.57739856  0.19182925  0.82729680  1
  Li  Li10  1  0.63858731  0.57689682  0.97509077  1
  Y  Y11  1  0.09360693  0.22746112  0.32925400  1
  Y  Y12  1  0.12450886  0.40370499  0.91651719  1
