# generated using pymatgen
data_LiYAs(PPb)2
_symmetry_space_group_name_H-M   'P 1'
_cell_length_a   5.10736915
_cell_length_b   5.21081815
_cell_length_c   7.05144259
_cell_angle_alpha   95.13549707
_cell_angle_beta   99.80808610
_cell_angle_gamma   106.95201498
_symmetry_Int_Tables_number   1
_chemical_formula_structural   LiYAs(PPb)2
_chemical_formula_sum   'Li1 Y1 As1 P2 Pb2'
_cell_volume   174.94718881
_cell_formula_units_Z   1
loop_
 _symmetry_equiv_pos_site_id
 _symmetry_equiv_pos_as_xyz
  1  'x, y, z'
loop_
 _atom_site_type_symbol
 _atom_site_label
 _atom_site_symmetry_multiplicity
 _atom_site_fract_x
 _atom_site_fract_y
 _atom_site_fract_z
 _atom_site_occupancy
  Pb  Pb0  1  0.12500000  0.00000000  0.25000000  1
  Pb  Pb1  1  0.00000000  0.00000000  0.00000000  1
  Y  Y2  1  0.37500000  0.00000000  0.25000000  1
  P  P3  1  0.25000000  0.25000000  0.25000000  1
  P  P4  1  0.00000000  0.25000000  0.12500000  1
  As  As5  1  0.90026636  0.46244316  0.72887137  1
  Li  Li6  1  0.16103628  0.30932198  0.55630523  1
