# generated using pymatgen
data_LiF
_symmetry_space_group_name_H-M   'P 1'
_cell_length_a   16.16075439
_cell_length_b   16.16075439
_cell_length_c   14.85874876
_cell_angle_alpha   90.00000000
_cell_angle_beta   90.00000000
_cell_angle_gamma   120.00000000
_symmetry_Int_Tables_number   1
_chemical_formula_structural   LiF
_chemical_formula_sum   'Li108 F108'
_cell_volume   3360.74941036
_cell_formula_units_Z   108
loop_
 _symmetry_equiv_pos_site_id
 _symmetry_equiv_pos_as_xyz
  1  'x, y, z'
loop_
 _atom_site_type_symbol
 _atom_site_label
 _atom_site_symmetry_multiplicity
 _atom_site_fract_x
 _atom_site_fract_y
 _atom_site_fract_z
 _atom_site_occupancy
  F  F0  1  0.65961262  0.00000000  0.25000000  1
  F  F1  1  0.00000000  0.65961262  0.25000000  1
  F  F2  1  0.34038738  0.34038738  0.25000000  1
  F  F3  1  0.34038738  0.00000000  0.75000000  1
  F  F4  1  0.00000000  0.34038738  0.75000000  1
  F  F5  1  0.65961262  0.65961262  0.75000000  1
  F  F6  1  0.32627929  0.33333333  0.58333333  1
  F  F7  1  0.66666667  0.99294596  0.58333333  1
  F  F8  1  0.00705404  0.67372071  0.58333333  1
  F  F9  1  0.00705404  0.33333333  0.08333333  1
  F  F10  1  0.66666667  0.67372071  0.08333333  1
  F  F11  1  0.32627929  0.99294596  0.08333333  1
  F  F12  1  0.99294596  0.66666667  0.91666667  1
  F  F13  1  0.33333333  0.32627929  0.91666667  1
  F  F14  1  0.67372071  0.00705404  0.91666667  1
  F  F15  1  0.67372071  0.66666667  0.41666667  1
  F  F16  1  0.33333333  0.00705404  0.41666667  1
  F  F17  1  0.99294596  0.32627929  0.41666667  1
  F  F18  1  0.09466509  0.31292346  0.96700212  1
  F  F19  1  0.68707654  0.78174163  0.96700212  1
  F  F20  1  0.21825837  0.90533491  0.96700212  1
  F  F21  1  0.31292346  0.09466509  0.53299788  1
  F  F22  1  0.78174163  0.68707654  0.53299788  1
  F  F23  1  0.90533491  0.21825837  0.53299788  1
  F  F24  1  0.90533491  0.68707654  0.03299788  1
  F  F25  1  0.31292346  0.21825837  0.03299788  1
  F  F26  1  0.78174163  0.09466509  0.03299788  1
  F  F27  1  0.68707654  0.90533491  0.46700212  1
  F  F28  1  0.21825837  0.31292346  0.46700212  1
  F  F29  1  0.09466509  0.78174163  0.46700212  1
  F  F30  1  0.76133175  0.64625679  0.30033545  1
  F  F31  1  0.35374321  0.11507496  0.30033545  1
  F  F32  1  0.88492504  0.23866825  0.30033545  1
  F  F33  1  0.97959013  0.42799842  0.86633121  1
  F  F34  1  0.44840830  0.02040987  0.86633121  1
  F  F35  1  0.57200158  0.55159170  0.86633121  1
  F  F36  1  0.57200158  0.02040987  0.36633121  1
  F  F37  1  0.97959013  0.55159170  0.36633121  1
  F  F38  1  0.44840830  0.42799842  0.36633121  1
  F  F39  1  0.35374321  0.23866825  0.80033545  1
  F  F40  1  0.88492504  0.64625679  0.80033545  1
  F  F41  1  0.76133175  0.11507496  0.80033545  1
  F  F42  1  0.42799842  0.97959013  0.63366879  1
  F  F43  1  0.02040987  0.44840830  0.63366879  1
  F  F44  1  0.55159170  0.57200158  0.63366879  1
  F  F45  1  0.64625679  0.76133175  0.19966455  1
  F  F46  1  0.11507496  0.35374321  0.19966455  1
  F  F47  1  0.23866825  0.88492504  0.19966455  1
  F  F48  1  0.23866825  0.35374321  0.69966455  1
  F  F49  1  0.64625679  0.88492504  0.69966455  1
  F  F50  1  0.11507496  0.76133175  0.69966455  1
  F  F51  1  0.02040987  0.57200158  0.13366879  1
  F  F52  1  0.55159170  0.97959013  0.13366879  1
  F  F53  1  0.42799842  0.44840830  0.13366879  1
  F  F54  1  0.10558350  0.07026180  0.85070769  1
  F  F55  1  0.92973820  0.03532170  0.85070769  1
  F  F56  1  0.96467830  0.89441650  0.85070769  1
  F  F57  1  0.07026180  0.10558350  0.64929231  1
  F  F58  1  0.03532170  0.92973820  0.64929231  1
  F  F59  1  0.89441650  0.96467830  0.64929231  1
  F  F60  1  0.89441650  0.92973820  0.14929231  1
  F  F61  1  0.07026180  0.96467830  0.14929231  1
  F  F62  1  0.03532170  0.10558350  0.14929231  1
  F  F63  1  0.92973820  0.89441650  0.35070769  1
  F  F64  1  0.96467830  0.07026180  0.35070769  1
  F  F65  1  0.10558350  0.03532170  0.35070769  1
  F  F66  1  0.77225017  0.40359514  0.18404103  1
  F  F67  1  0.59640486  0.36865503  0.18404103  1
  F  F68  1  0.63134497  0.22774983  0.18404103  1
  F  F69  1  0.73692847  0.43891683  0.98262564  1
  F  F70  1  0.70198836  0.26307153  0.98262564  1
  F  F71  1  0.56108317  0.29801164  0.98262564  1
  F  F72  1  0.56108317  0.26307153  0.48262564  1
  F  F73  1  0.73692847  0.29801164  0.48262564  1
  F  F74  1  0.70198836  0.43891683  0.48262564  1
  F  F75  1  0.59640486  0.22774983  0.68404103  1
  F  F76  1  0.63134497  0.40359514  0.68404103  1
  F  F77  1  0.77225017  0.36865503  0.68404103  1
  F  F78  1  0.43891683  0.73692847  0.51737436  1
  F  F79  1  0.26307153  0.70198836  0.51737436  1
  F  F80  1  0.29801164  0.56108317  0.51737436  1
  F  F81  1  0.40359514  0.77225017  0.31595897  1
  F  F82  1  0.36865503  0.59640486  0.31595897  1
  F  F83  1  0.22774983  0.63134497  0.31595897  1
  F  F84  1  0.22774983  0.59640486  0.81595897  1
  F  F85  1  0.40359514  0.63134497  0.81595897  1
  F  F86  1  0.36865503  0.77225017  0.81595897  1
  F  F87  1  0.26307153  0.56108317  0.01737436  1
  F  F88  1  0.29801164  0.73692847  0.01737436  1
  F  F89  1  0.43891683  0.70198836  0.01737436  1
  F  F90  1  0.00000000  0.00000000  0.00000000  1
  F  F91  1  0.00000000  0.00000000  0.50000000  1
  F  F92  1  0.66666667  0.33333333  0.33333333  1
  F  F93  1  0.66666667  0.33333333  0.83333333  1
  F  F94  1  0.33333333  0.66666667  0.66666667  1
  F  F95  1  0.33333333  0.66666667  0.16666667  1
  F  F96  1  0.00000000  0.00000000  0.63258781  1
  F  F97  1  0.00000000  0.00000000  0.86741219  1
  F  F98  1  0.00000000  0.00000000  0.36741219  1
  F  F99  1  0.00000000  0.00000000  0.13258781  1
  F  F100  1  0.66666667  0.33333333  0.96592114  1
  F  F101  1  0.66666667  0.33333333  0.20074553  1
  F  F102  1  0.66666667  0.33333333  0.70074553  1
  F  F103  1  0.66666667  0.33333333  0.46592114  1
  F  F104  1  0.33333333  0.66666667  0.29925447  1
  F  F105  1  0.33333333  0.66666667  0.53407886  1
  F  F106  1  0.33333333  0.66666667  0.03407886  1
  F  F107  1  0.33333333  0.66666667  0.79925447  1
  Li  Li108  1  0.75214345  0.00000000  0.25000000  1
  Li  Li109  1  0.00000000  0.75214345  0.25000000  1
  Li  Li110  1  0.24785655  0.24785655  0.25000000  1
  Li  Li111  1  0.24785655  0.00000000  0.75000000  1
  Li  Li112  1  0.00000000  0.24785655  0.75000000  1
  Li  Li113  1  0.75214345  0.75214345  0.75000000  1
  Li  Li114  1  0.41881011  0.33333333  0.58333333  1
  Li  Li115  1  0.66666667  0.08547678  0.58333333  1
  Li  Li116  1  0.91452322  0.58118989  0.58333333  1
  Li  Li117  1  0.91452322  0.33333333  0.08333333  1
  Li  Li118  1  0.66666667  0.58118989  0.08333333  1
  Li  Li119  1  0.41881011  0.08547678  0.08333333  1
  Li  Li120  1  0.08547678  0.66666667  0.91666667  1
  Li  Li121  1  0.33333333  0.41881011  0.91666667  1
  Li  Li122  1  0.58118989  0.91452322  0.91666667  1
  Li  Li123  1  0.58118989  0.66666667  0.41666667  1
  Li  Li124  1  0.33333333  0.91452322  0.41666667  1
  Li  Li125  1  0.08547678  0.41881011  0.41666667  1
  Li  Li126  1  0.38143642  0.31757543  0.01533708  1
  Li  Li127  1  -0.31757543  0.06386100  0.01533708  1
  Li  Li128  1  -0.06386100  -0.38143642  0.01533708  1
  Li  Li129  1  0.31757543  0.38143642  0.48466292  1
  Li  Li130  1  0.06386100  -0.31757543  0.48466292  1
  Li  Li131  1  -0.38143642  -0.06386100  0.48466292  1
  Li  Li132  1  -0.38143642  -0.31757543  -0.01533708  1
  Li  Li133  1  0.31757543  -0.06386100  -0.01533708  1
  Li  Li134  1  0.06386100  0.38143642  -0.01533708  1
  Li  Li135  1  -0.31757543  -0.38143642  0.51533708  1
  Li  Li136  1  -0.06386100  0.31757543  0.51533708  1
  Li  Li137  1  0.38143642  0.06386100  0.51533708  1
  Li  Li138  1  1.04810309  0.65090876  0.34867042  1
  Li  Li139  1  0.34909124  0.39719433  0.34867042  1
  Li  Li140  1  0.60280567  -0.04810309  0.34867042  1
  Li  Li141  1  0.98424209  0.71476976  0.81799625  1
  Li  Li142  1  0.73052766  0.01575791  0.81799625  1
  Li  Li143  1  0.28523024  0.26947234  0.81799625  1
  Li  Li144  1  0.28523024  0.01575791  0.31799625  1
  Li  Li145  1  0.98424209  0.26947234  0.31799625  1
  Li  Li146  1  0.73052766  0.71476976  0.31799625  1
  Li  Li147  1  0.34909124  -0.04810309  0.84867042  1
  Li  Li148  1  0.60280567  0.65090876  0.84867042  1
  Li  Li149  1  1.04810309  0.39719433  0.84867042  1
  Li  Li150  1  0.71476976  0.98424209  0.68200375  1
  Li  Li151  1  0.01575791  0.73052766  0.68200375  1
  Li  Li152  1  0.26947234  0.28523024  0.68200375  1
  Li  Li153  1  0.65090876  1.04810309  1.15132958  1
  Li  Li154  1  0.39719433  0.34909124  1.15132958  1
  Li  Li155  1  -0.04810309  0.60280567  1.15132958  1
  Li  Li156  1  -0.04810309  0.34909124  0.65132958  1
  Li  Li157  1  0.65090876  0.60280567  0.65132958  1
  Li  Li158  1  0.39719433  1.04810309  0.65132958  1
  Li  Li159  1  0.01575791  0.28523024  1.18200375  1
  Li  Li160  1  0.26947234  0.98424209  1.18200375  1
  Li  Li161  1  0.71476976  0.73052766  1.18200375  1
  Li  Li162  1  0.73743536  0.80497985  0.57473704  1
  Li  Li163  1  0.19502015  0.93245551  0.57473704  1
  Li  Li164  1  0.06754449  0.26256464  0.57473704  1
  Li  Li165  1  0.80497985  0.73743536  0.92526296  1
  Li  Li166  1  0.93245551  0.19502015  0.92526296  1
  Li  Li167  1  0.26256464  0.06754449  0.92526296  1
  Li  Li168  1  0.26256464  0.19502015  0.42526296  1
  Li  Li169  1  0.80497985  0.06754449  0.42526296  1
  Li  Li170  1  0.93245551  0.73743536  0.42526296  1
  Li  Li171  1  0.19502015  0.26256464  0.07473704  1
  Li  Li172  1  0.06754449  0.80497985  0.07473704  1
  Li  Li173  1  0.73743536  0.93245551  0.07473704  1
  Li  Li174  1  0.40410202  0.13831318  0.90807037  1
  Li  Li175  1  0.86168682  0.26578884  0.90807037  1
  Li  Li176  1  0.73421116  0.59589798  0.90807037  1
  Li  Li177  1  0.47164651  0.07076869  0.25859630  1
  Li  Li178  1  0.59912218  0.52835349  0.25859630  1
  Li  Li179  1  0.92923131  0.40087782  0.25859630  1
  Li  Li180  1  0.92923131  0.52835349  0.75859630  1
  Li  Li181  1  0.47164651  0.40087782  0.75859630  1
  Li  Li182  1  0.59912218  0.07076869  0.75859630  1
  Li  Li183  1  0.86168682  0.59589798  0.40807037  1
  Li  Li184  1  0.73421116  0.13831318  0.40807037  1
  Li  Li185  1  0.40410202  0.26578884  0.40807037  1
  Li  Li186  1  0.07076869  0.47164651  0.24140370  1
  Li  Li187  1  0.52835349  0.59912218  0.24140370  1
  Li  Li188  1  0.40087782  0.92923131  0.24140370  1
  Li  Li189  1  0.13831318  0.40410202  0.59192963  1
  Li  Li190  1  0.26578884  0.86168682  0.59192963  1
  Li  Li191  1  0.59589798  0.73421116  0.59192963  1
  Li  Li192  1  0.59589798  0.86168682  0.09192963  1
  Li  Li193  1  0.13831318  0.73421116  0.09192963  1
  Li  Li194  1  0.26578884  0.40410202  0.09192963  1
  Li  Li195  1  0.52835349  0.92923131  0.74140370  1
  Li  Li196  1  0.40087782  0.47164651  0.74140370  1
  Li  Li197  1  0.07076869  0.59912218  0.74140370  1
  Li  Li198  1  0.50000000  0.00000000  0.00000000  1
  Li  Li199  1  0.00000000  0.50000000  0.00000000  1
  Li  Li200  1  0.50000000  0.50000000  0.00000000  1
  Li  Li201  1  0.00000000  0.50000000  0.50000000  1
  Li  Li202  1  0.50000000  0.00000000  0.50000000  1
  Li  Li203  1  0.50000000  0.50000000  0.50000000  1
  Li  Li204  1  0.16666667  0.33333333  0.33333333  1
  Li  Li205  1  0.66666667  0.83333333  0.33333333  1
  Li  Li206  1  0.16666667  0.83333333  0.33333333  1
  Li  Li207  1  0.66666667  0.83333333  0.83333333  1
  Li  Li208  1  0.16666667  0.33333333  0.83333333  1
  Li  Li209  1  0.16666667  0.83333333  0.83333333  1
  Li  Li210  1  0.83333333  0.66666667  0.66666667  1
  Li  Li211  1  0.33333333  0.16666667  0.66666667  1
  Li  Li212  1  0.83333333  0.16666667  0.66666667  1
  Li  Li213  1  0.33333333  0.16666667  0.16666667  1
  Li  Li214  1  0.83333333  0.66666667  0.16666667  1
  Li  Li215  1  0.83333333  0.16666667  0.16666667  1
