# generated using pymatgen
data_LiF
_symmetry_space_group_name_H-M   'P 1'
_cell_length_a   4.39090488
_cell_length_b   5.39541639
_cell_length_c   5.89629379
_cell_angle_alpha   90.00000000
_cell_angle_beta   90.00000000
_cell_angle_gamma   90.00000000
_symmetry_Int_Tables_number   1
_chemical_formula_structural   LiF
_chemical_formula_sum   'Li8 F8'
_cell_volume   139.68768200
_cell_formula_units_Z   8
loop_
 _symmetry_equiv_pos_site_id
 _symmetry_equiv_pos_as_xyz
  1  'x, y, z'
loop_
 _atom_site_type_symbol
 _atom_site_label
 _atom_site_symmetry_multiplicity
 _atom_site_fract_x
 _atom_site_fract_y
 _atom_site_fract_z
 _atom_site_occupancy
  F  F0  1  0.86091040  0.25480385  0.34243777  1
  F  F1  1  -0.86091040  -0.25480385  0.34243777  1
  F  F2  1  -0.36091040  0.75480385  0.15756223  1
  F  F3  1  1.36091040  0.24519615  0.15756223  1
  F  F4  1  -0.86091040  -0.25480385  -0.34243777  1
  F  F5  1  0.86091040  0.25480385  -0.34243777  1
  F  F6  1  1.36091040  0.24519615  0.84243777  1
  F  F7  1  -0.36091040  0.75480385  0.84243777  1
  Li  Li8  1  0.00000000  0.50000000  0.00000000  1
  Li  Li9  1  0.50000000  0.00000000  0.50000000  1
  Li  Li10  1  0.00000000  0.50000000  0.62705797  1
  Li  Li11  1  0.50000000  0.00000000  0.87294203  1
  Li  Li12  1  0.00000000  0.50000000  0.37294203  1
  Li  Li13  1  0.50000000  0.00000000  0.12705797  1
  Li  Li14  1  0.00000000  0.00000000  0.50000000  1
  Li  Li15  1  0.50000000  0.50000000  0.00000000  1
