# generated using pymatgen
data_LiF
_symmetry_space_group_name_H-M   'P 1'
_cell_length_a   11.81117092
_cell_length_b   11.81117092
_cell_length_c   5.57988045
_cell_angle_alpha   90.00000000
_cell_angle_beta   90.00000000
_cell_angle_gamma   120.00000000
_symmetry_Int_Tables_number   1
_chemical_formula_structural   LiF
_chemical_formula_sum   'Li36 F36'
_cell_volume   674.12655284
_cell_formula_units_Z   36
loop_
 _symmetry_equiv_pos_site_id
 _symmetry_equiv_pos_as_xyz
  1  'x, y, z'
loop_
 _atom_site_type_symbol
 _atom_site_label
 _atom_site_symmetry_multiplicity
 _atom_site_fract_x
 _atom_site_fract_y
 _atom_site_fract_z
 _atom_site_occupancy
  F  F0  1  0.36378415  0.25491681  0.41313850  1
  F  F1  1  -0.25491681  0.10886734  0.41313850  1
  F  F2  1  -0.10886734  -0.36378415  0.41313850  1
  F  F3  1  0.25491681  0.36378415  0.08686150  1
  F  F4  1  0.10886734  -0.25491681  0.08686150  1
  F  F5  1  -0.36378415  -0.10886734  0.08686150  1
  F  F6  1  -0.36378415  -0.25491681  -0.41313850  1
  F  F7  1  0.25491681  -0.10886734  -0.41313850  1
  F  F8  1  0.10886734  0.36378415  -0.41313850  1
  F  F9  1  -0.25491681  -0.36378415  0.91313850  1
  F  F10  1  -0.10886734  0.25491681  0.91313850  1
  F  F11  1  0.36378415  0.10886734  0.91313850  1
  F  F12  1  1.03045081  0.58825014  0.74647184  1
  F  F13  1  0.41174986  0.44220067  0.74647184  1
  F  F14  1  0.55779933  -0.03045081  0.74647184  1
  F  F15  1  0.92158347  0.69711748  0.42019483  1
  F  F16  1  0.77553401  0.07841653  0.42019483  1
  F  F17  1  0.30288252  0.22446599  0.42019483  1
  F  F18  1  0.30288252  0.07841653  -0.07980517  1
  F  F19  1  0.92158347  0.22446599  -0.07980517  1
  F  F20  1  0.77553401  0.69711748  -0.07980517  1
  F  F21  1  0.41174986  -0.03045081  1.24647184  1
  F  F22  1  0.55779933  0.58825014  1.24647184  1
  F  F23  1  1.03045081  0.44220067  1.24647184  1
  F  F24  1  0.69711748  0.92158347  1.07980517  1
  F  F25  1  0.07841653  0.77553401  1.07980517  1
  F  F26  1  0.22446599  0.30288252  1.07980517  1
  F  F27  1  0.58825014  1.03045081  0.75352816  1
  F  F28  1  0.44220067  0.41174986  0.75352816  1
  F  F29  1  -0.03045081  0.55779933  0.75352816  1
  F  F30  1  -0.03045081  0.41174986  0.25352816  1
  F  F31  1  0.58825014  0.55779933  0.25352816  1
  F  F32  1  0.44220067  1.03045081  0.25352816  1
  F  F33  1  0.07841653  0.30288252  1.57980517  1
  F  F34  1  0.22446599  0.92158347  1.57980517  1
  F  F35  1  0.69711748  0.77553401  1.57980517  1
  Li  Li36  1  0.57310917  -0.00000000  0.25000000  1
  Li  Li37  1  0.00000000  0.57310917  0.25000000  1
  Li  Li38  1  0.42689083  0.42689083  0.25000000  1
  Li  Li39  1  0.42689083  0.00000000  0.75000000  1
  Li  Li40  1  0.00000000  0.42689083  0.75000000  1
  Li  Li41  1  0.57310917  0.57310917  0.75000000  1
  Li  Li42  1  0.23977584  0.33333333  0.58333333  1
  Li  Li43  1  0.66666667  0.90644250  0.58333333  1
  Li  Li44  1  0.09355750  0.76022416  0.58333333  1
  Li  Li45  1  0.09355750  0.33333333  0.08333333  1
  Li  Li46  1  0.66666667  0.76022416  0.08333333  1
  Li  Li47  1  0.23977584  0.90644250  0.08333333  1
  Li  Li48  1  0.90644250  0.66666667  0.91666667  1
  Li  Li49  1  0.33333333  0.23977584  0.91666667  1
  Li  Li50  1  0.76022416  0.09355750  0.91666667  1
  Li  Li51  1  0.76022416  0.66666667  0.41666667  1
  Li  Li52  1  0.33333333  0.09355750  0.41666667  1
  Li  Li53  1  0.90644250  0.23977584  0.41666667  1
  Li  Li54  1  0.20551634  0.00000000  0.25000000  1
  Li  Li55  1  0.00000000  0.20551634  0.25000000  1
  Li  Li56  1  0.79448366  0.79448366  0.25000000  1
  Li  Li57  1  0.79448366  0.00000000  0.75000000  1
  Li  Li58  1  0.00000000  0.79448366  0.75000000  1
  Li  Li59  1  0.20551634  0.20551634  0.75000000  1
  Li  Li60  1  0.87218301  0.33333333  0.58333333  1
  Li  Li61  1  0.66666667  0.53884967  0.58333333  1
  Li  Li62  1  0.46115033  0.12781699  0.58333333  1
  Li  Li63  1  0.46115033  0.33333333  0.08333333  1
  Li  Li64  1  0.66666667  0.12781699  0.08333333  1
  Li  Li65  1  0.87218301  0.53884967  0.08333333  1
  Li  Li66  1  0.53884967  0.66666667  0.91666667  1
  Li  Li67  1  0.33333333  0.87218301  0.91666667  1
  Li  Li68  1  0.12781699  0.46115033  0.91666667  1
  Li  Li69  1  0.12781699  0.66666667  0.41666667  1
  Li  Li70  1  0.33333333  0.46115033  0.41666667  1
  Li  Li71  1  0.53884967  0.87218301  0.41666667  1
