# generated using pymatgen
data_LiCu3MoP
_symmetry_space_group_name_H-M   'P 1'
_cell_length_a   4.90310512
_cell_length_b   5.02150138
_cell_length_c   6.70722253
_cell_angle_alpha   94.70330399
_cell_angle_beta   99.44423412
_cell_angle_gamma   107.63891151
_symmetry_Int_Tables_number   1
_chemical_formula_structural   LiCu3MoP
_chemical_formula_sum   'Li1 Cu3 Mo1 P1'
_cell_volume   153.70973374
_cell_formula_units_Z   1
loop_
 _symmetry_equiv_pos_site_id
 _symmetry_equiv_pos_as_xyz
  1  'x, y, z'
loop_
 _atom_site_type_symbol
 _atom_site_label
 _atom_site_symmetry_multiplicity
 _atom_site_fract_x
 _atom_site_fract_y
 _atom_site_fract_z
 _atom_site_occupancy
  P  P0  1  0.00000000  0.00000000  0.00000000  1
  Mo  Mo1  1  0.50000000  0.50000000  0.50000000  1
  Li  Li2  1  0.50000000  0.50000000  0.00000000  1
  Cu  Cu3  1  0.50000000  0.00000000  0.50000000  1
  Cu  Cu4  1  0.00000000  0.50000000  0.50000000  1
  Cu  Cu5  1  0.80049270  0.65835741  0.20997921  1
