# generated using pymatgen
data_LiF
_symmetry_space_group_name_H-M   'P 1'
_cell_length_a   5.58134636
_cell_length_b   9.83631076
_cell_length_c   7.74654837
_cell_angle_alpha   90.00000000
_cell_angle_beta   90.00000000
_cell_angle_gamma   90.00000000
_symmetry_Int_Tables_number   1
_chemical_formula_structural   LiF
_chemical_formula_sum   'Li14 F14'
_cell_volume   425.28439957
_cell_formula_units_Z   14
loop_
 _symmetry_equiv_pos_site_id
 _symmetry_equiv_pos_as_xyz
  1  'x, y, z'
loop_
 _atom_site_type_symbol
 _atom_site_label
 _atom_site_symmetry_multiplicity
 _atom_site_fract_x
 _atom_site_fract_y
 _atom_site_fract_z
 _atom_site_occupancy
  F  F0  1  0.00000000  0.50000000  0.00000000  1
  F  F1  1  0.50000000  -0.00000000  0.00000000  1
  F  F2  1  0.00000000  0.00000000  0.00000000  1
  F  F3  1  0.50000000  0.50000000  0.00000000  1
  F  F4  1  0.00000000  0.00000000  0.80259690  1
  F  F5  1  0.50000000  0.50000000  0.19740310  1
  F  F6  1  0.00000000  0.00000000  0.19740310  1
  F  F7  1  0.50000000  0.50000000  0.80259690  1
  F  F8  1  0.79574795  0.73864513  -0.00000000  1
  F  F9  1  0.20425205  0.26135487  0.00000000  1
  F  F10  1  0.70425205  0.23864513  -0.00000000  1
  F  F11  1  0.29574795  0.76135487  -0.00000000  1
  F  F12  1  0.00000000  0.00000000  0.50000000  1
  F  F13  1  0.50000000  0.50000000  0.50000000  1
  Li  Li14  1  0.28609548  0.86735280  -0.00000000  1
  Li  Li15  1  0.71390452  0.13264720  0.00000000  1
  Li  Li16  1  0.21390452  0.36735280  -0.00000000  1
  Li  Li17  1  0.78609548  0.63264720  0.00000000  1
  Li  Li18  1  0.12280971  0.14640787  0.69783686  1
  Li  Li19  1  -0.12280971  -0.14640787  0.69783686  1
  Li  Li20  1  0.37719029  0.64640787  -0.69783686  1
  Li  Li21  1  0.62280971  0.35359213  -0.69783686  1
  Li  Li22  1  -0.12280971  -0.14640787  -0.69783686  1
  Li  Li23  1  0.12280971  0.14640787  -0.69783686  1
  Li  Li24  1  0.62280971  0.35359213  0.69783686  1
  Li  Li25  1  0.37719029  0.64640787  0.69783686  1
  Li  Li26  1  0.00000000  0.50000000  0.50000000  1
  Li  Li27  1  0.50000000  -0.00000000  0.50000000  1
