# generated using pymatgen
data_LiF
_symmetry_space_group_name_H-M   'P 1'
_cell_length_a   6.33729847
_cell_length_b   6.59515365
_cell_length_c   9.29020516
_cell_angle_alpha   90.00000000
_cell_angle_beta   90.00000000
_cell_angle_gamma   90.00000000
_symmetry_Int_Tables_number   1
_chemical_formula_structural   LiF
_chemical_formula_sum   'Li10 F10'
_cell_volume   388.28837188
_cell_formula_units_Z   10
loop_
 _symmetry_equiv_pos_site_id
 _symmetry_equiv_pos_as_xyz
  1  'x, y, z'
loop_
 _atom_site_type_symbol
 _atom_site_label
 _atom_site_symmetry_multiplicity
 _atom_site_fract_x
 _atom_site_fract_y
 _atom_site_fract_z
 _atom_site_occupancy
  F  F0  1  0.38299876  0.99570914  0.00000000  1
  F  F1  1  -0.38299876  -0.99570914  0.00000000  1
  F  F2  1  0.11700124  1.49570914  0.00000000  1
  F  F3  1  0.88299876  -0.49570914  0.00000000  1
  F  F4  1  0.13938517  0.59455648  0.50000000  1
  F  F5  1  0.86061483  0.40544352  0.50000000  1
  F  F6  1  0.36061483  0.09455648  0.50000000  1
  F  F7  1  0.63938517  0.90544352  0.50000000  1
  F  F8  1  0.00000000  0.50000000  0.50000000  1
  F  F9  1  0.50000000  0.00000000  0.50000000  1
  Li  Li10  1  0.27145594  0.57268559  0.00000000  1
  Li  Li11  1  0.72854406  0.42731441  0.00000000  1
  Li  Li12  1  0.22854406  0.07268559  0.00000000  1
  Li  Li13  1  0.77145594  0.92731441  0.00000000  1
  Li  Li14  1  0.03092866  0.09936626  0.50000000  1
  Li  Li15  1  0.96907134  0.90063374  0.50000000  1
  Li  Li16  1  0.46907134  0.59936626  0.50000000  1
  Li  Li17  1  0.53092866  0.40063374  0.50000000  1
  Li  Li18  1  0.00000000  0.00000000  0.00000000  1
  Li  Li19  1  0.50000000  0.50000000  0.00000000  1
