# generated using pymatgen
data_LiF
_symmetry_space_group_name_H-M   'P 1'
_cell_length_a   10.54201305
_cell_length_b   8.03952024
_cell_length_c   10.03740055
_cell_angle_alpha   90.00000000
_cell_angle_beta   90.00000000
_cell_angle_gamma   90.00000000
_symmetry_Int_Tables_number   1
_chemical_formula_structural   LiF
_chemical_formula_sum   'Li28 F28'
_cell_volume   850.69707198
_cell_formula_units_Z   28
loop_
 _symmetry_equiv_pos_site_id
 _symmetry_equiv_pos_as_xyz
  1  'x, y, z'
loop_
 _atom_site_type_symbol
 _atom_site_label
 _atom_site_symmetry_multiplicity
 _atom_site_fract_x
 _atom_site_fract_y
 _atom_site_fract_z
 _atom_site_occupancy
  F  F0  1  0.38045312  0.65946659  0.73779817  1
  F  F1  1  -0.38045312  -0.65946659  0.73779817  1
  F  F2  1  0.11954688  1.15946659  -0.73779817  1
  F  F3  1  0.88045312  -0.15946659  -0.73779817  1
  F  F4  1  -0.38045312  -0.65946659  -0.73779817  1
  F  F5  1  0.38045312  0.65946659  -0.73779817  1
  F  F6  1  0.88045312  -0.15946659  0.73779817  1
  F  F7  1  0.11954688  1.15946659  0.73779817  1
  F  F8  1  0.00000000  0.50000000  0.13081113  1
  F  F9  1  0.50000000  0.00000000  0.86918887  1
  F  F10  1  0.00000000  0.50000000  0.86918887  1
  F  F11  1  0.50000000  0.00000000  0.13081113  1
  F  F12  1  0.31756997  0.21298400  0.69774964  1
  F  F13  1  0.68243003  0.78701600  0.69774964  1
  F  F14  1  0.18243003  0.71298400  0.30225036  1
  F  F15  1  0.81756997  0.28701600  0.30225036  1
  F  F16  1  0.68243003  0.78701600  0.30225036  1
  F  F17  1  0.31756997  0.21298400  0.30225036  1
  F  F18  1  0.81756997  0.28701600  0.69774964  1
  F  F19  1  0.18243003  0.71298400  0.69774964  1
  F  F20  1  0.60443701  0.34856929  0.58723533  1
  F  F21  1  0.39556299  0.65143071  0.58723533  1
  F  F22  1  0.89556299  0.84856929  0.41276467  1
  F  F23  1  0.10443701  0.15143071  0.41276467  1
  F  F24  1  0.39556299  0.65143071  0.41276467  1
  F  F25  1  0.60443701  0.34856929  0.41276467  1
  F  F26  1  0.10443701  0.15143071  0.58723533  1
  F  F27  1  0.89556299  0.84856929  0.58723533  1
  Li  Li28  1  0.38060939  0.46181566  0.13233851  1
  Li  Li29  1  0.61939061  0.53818434  0.13233851  1
  Li  Li30  1  0.11939061  0.96181566  0.86766149  1
  Li  Li31  1  0.88060939  0.03818434  0.86766149  1
  Li  Li32  1  0.61939061  0.53818434  0.86766149  1
  Li  Li33  1  0.38060939  0.46181566  0.86766149  1
  Li  Li34  1  0.88060939  0.03818434  0.13233851  1
  Li  Li35  1  0.11939061  0.96181566  0.13233851  1
  Li  Li36  1  0.83859410  0.06595638  0.33929874  1
  Li  Li37  1  0.16140590  0.93404362  0.33929874  1
  Li  Li38  1  0.66140590  0.56595638  0.66070126  1
  Li  Li39  1  0.33859410  0.43404362  0.66070126  1
  Li  Li40  1  0.16140590  0.93404362  0.66070126  1
  Li  Li41  1  0.83859410  0.06595638  0.66070126  1
  Li  Li42  1  0.33859410  0.43404362  0.33929874  1
  Li  Li43  1  0.66140590  0.56595638  0.33929874  1
  Li  Li44  1  0.67119977  0.30810028  0.50000000  1
  Li  Li45  1  0.32880023  0.69189972  0.50000000  1
  Li  Li46  1  0.82880023  0.80810028  0.50000000  1
  Li  Li47  1  0.17119977  0.19189972  0.50000000  1
  Li  Li48  1  0.73129749  0.97600234  0.00000000  1
  Li  Li49  1  0.26870251  0.02399766  0.00000000  1
  Li  Li50  1  0.76870251  0.47600234  0.00000000  1
  Li  Li51  1  0.23129749  0.52399766  0.00000000  1
  Li  Li52  1  0.00000000  0.00000000  0.16334855  1
  Li  Li53  1  0.50000000  0.50000000  0.83665145  1
  Li  Li54  1  0.00000000  0.00000000  0.83665145  1
  Li  Li55  1  0.50000000  0.50000000  0.16334855  1
