# generated using pymatgen
data_LiF
_symmetry_space_group_name_H-M   'P 1'
_cell_length_a   7.34180744
_cell_length_b   7.34180744
_cell_length_c   9.65053223
_cell_angle_alpha   90.00000000
_cell_angle_beta   90.00000000
_cell_angle_gamma   120.00000000
_symmetry_Int_Tables_number   1
_chemical_formula_structural   LiF
_chemical_formula_sum   'Li14 F14'
_cell_volume   450.49282283
_cell_formula_units_Z   14
loop_
 _symmetry_equiv_pos_site_id
 _symmetry_equiv_pos_as_xyz
  1  'x, y, z'
loop_
 _atom_site_type_symbol
 _atom_site_label
 _atom_site_symmetry_multiplicity
 _atom_site_fract_x
 _atom_site_fract_y
 _atom_site_fract_z
 _atom_site_occupancy
  F  F0  1  0.60691000  0.10068831  0.81422993  1
  F  F1  1  0.89931169  0.50622169  0.81422993  1
  F  F2  1  0.49377831  0.39309000  0.81422993  1
  F  F3  1  0.89931169  0.39309000  0.18577007  1
  F  F4  1  0.49377831  0.10068831  0.18577007  1
  F  F5  1  0.60691000  0.50622169  0.18577007  1
  F  F6  1  0.42678514  0.43715595  0.96560360  1
  F  F7  1  0.56284405  0.98962919  0.96560360  1
  F  F8  1  0.01037081  0.57321486  0.96560360  1
  F  F9  1  0.56284405  0.57321486  0.03439640  1
  F  F10  1  0.01037081  0.43715595  0.03439640  1
  F  F11  1  0.42678514  0.98962919  0.03439640  1
  F  F12  1  0.66666667  0.33333333  0.50000000  1
  F  F13  1  0.33333333  0.66666667  0.00000000  1
  Li  Li14  1  0.00000000  0.00000000  0.00000000  1
  Li  Li15  1  0.54800000  0.61434336  0.75324401  1
  Li  Li16  1  -0.61434336  -0.06634336  0.75324401  1
  Li  Li17  1  0.06634336  -0.54800000  0.75324401  1
  Li  Li18  1  -0.61434336  -0.54800000  -0.75324401  1
  Li  Li19  1  0.06634336  0.61434336  -0.75324401  1
  Li  Li20  1  0.54800000  -0.06634336  -0.75324401  1
  Li  Li21  1  0.81537428  0.66551026  0.56820997  1
  Li  Li22  1  0.33448974  0.14986402  0.56820997  1
  Li  Li23  1  0.85013598  0.18462572  0.56820997  1
  Li  Li24  1  0.33448974  0.18462572  0.43179003  1
  Li  Li25  1  0.85013598  0.66551026  0.43179003  1
  Li  Li26  1  0.81537428  0.14986402  0.43179003  1
  Li  Li27  1  0.66666667  0.33333333  0.00000000  1
