# generated using pymatgen
data_Li2Y2As4P3
_symmetry_space_group_name_H-M   'P 1'
_cell_length_a   4.59154080
_cell_length_b   4.67686327
_cell_length_c   6.79492350
_cell_angle_alpha   95.43459674
_cell_angle_beta   101.83542186
_cell_angle_gamma   111.82861516
_symmetry_Int_Tables_number   1
_chemical_formula_structural   Li2Y2As4P3
_chemical_formula_sum   'Li2 Y2 As4 P3'
_cell_volume   130.20418722
_cell_formula_units_Z   1
loop_
 _symmetry_equiv_pos_site_id
 _symmetry_equiv_pos_as_xyz
  1  'x, y, z'
loop_
 _atom_site_type_symbol
 _atom_site_label
 _atom_site_symmetry_multiplicity
 _atom_site_fract_x
 _atom_site_fract_y
 _atom_site_fract_z
 _atom_site_occupancy
  P  P0  1  0.00000000  0.00000000  0.00000000  1
  P  P1  1  0.50000000  0.50000000  0.50000000  1
  P  P2  1  0.25000000  0.25000000  0.25000000  1
  As  As3  1  0.75000000  0.25000000  0.00000000  1
  As  As4  1  0.25000000  0.75000000  0.50000000  1
  As  As5  1  0.89977182  0.41745132  0.26626162  1
  As  As6  1  0.83340453  0.76240635  0.33696344  1
  Li  Li7  1  0.49764936  0.54167718  0.35314101  1
  Li  Li8  1  0.01882702  0.94013996  0.50751780  1
  Y  Y9  1  0.96917430  0.50926995  0.10154207  1
  Y  Y10  1  0.21036235  0.64168907  0.60840267  1
