# generated using pymatgen
data_LiF
_symmetry_space_group_name_H-M   'P 1'
_cell_length_a   8.07222114
_cell_length_b   7.00324249
_cell_length_c   13.39292411
_cell_angle_alpha   90.00000000
_cell_angle_beta   90.00000000
_cell_angle_gamma   90.00000000
_symmetry_Int_Tables_number   1
_chemical_formula_structural   LiF
_chemical_formula_sum   'Li26 F26'
_cell_volume   757.12506381
_cell_formula_units_Z   26
loop_
 _symmetry_equiv_pos_site_id
 _symmetry_equiv_pos_as_xyz
  1  'x, y, z'
loop_
 _atom_site_type_symbol
 _atom_site_label
 _atom_site_symmetry_multiplicity
 _atom_site_fract_x
 _atom_site_fract_y
 _atom_site_fract_z
 _atom_site_occupancy
  F  F0  1  0.38562794  0.45702518  0.65755967  1
  F  F1  1  -0.38562794  -0.45702518  0.65755967  1
  F  F2  1  0.11437206  0.95702518  -0.65755967  1
  F  F3  1  0.88562794  0.04297482  -0.65755967  1
  F  F4  1  -0.38562794  -0.45702518  -0.65755967  1
  F  F5  1  0.38562794  0.45702518  -0.65755967  1
  F  F6  1  0.88562794  0.04297482  0.65755967  1
  F  F7  1  0.11437206  0.95702518  0.65755967  1
  F  F8  1  0.32990012  0.43003324  0.50000000  1
  F  F9  1  0.67009988  0.56996676  0.50000000  1
  F  F10  1  0.17009988  0.93003324  0.50000000  1
  F  F11  1  0.82990012  0.06996676  0.50000000  1
  F  F12  1  0.53200454  0.70857092  0.43308376  1
  F  F13  1  0.46799546  0.29142908  0.43308376  1
  F  F14  1  0.96799546  0.20857092  0.56691624  1
  F  F15  1  0.03200454  0.79142908  0.56691624  1
  F  F16  1  0.46799546  0.29142908  0.56691624  1
  F  F17  1  0.53200454  0.70857092  0.56691624  1
  F  F18  1  0.03200454  0.79142908  0.43308376  1
  F  F19  1  0.96799546  0.20857092  0.43308376  1
  F  F20  1  0.37786065  0.86064329  0.50000000  1
  F  F21  1  0.62213935  0.13935671  0.50000000  1
  F  F22  1  0.12213935  0.36064329  0.50000000  1
  F  F23  1  0.87786065  0.63935671  0.50000000  1
  F  F24  1  0.00000000  0.50000000  0.50000000  1
  F  F25  1  0.50000000  0.00000000  0.50000000  1
  Li  Li26  1  0.24485245  0.30895395  -0.00000000  1
  Li  Li27  1  0.75514755  0.69104605  0.00000000  1
  Li  Li28  1  0.25514755  0.80895395  0.00000000  1
  Li  Li29  1  0.74485245  0.19104605  0.00000000  1
  Li  Li30  1  0.70033624  0.88661136  -0.00000000  1
  Li  Li31  1  0.29966376  0.11338864  0.00000000  1
  Li  Li32  1  0.79966376  0.38661136  -0.00000000  1
  Li  Li33  1  0.20033624  0.61338864  0.00000000  1
  Li  Li34  1  0.54296677  0.68939321  0.00000000  1
  Li  Li35  1  0.45703323  0.31060679  -0.00000000  1
  Li  Li36  1  0.95703323  0.18939321  0.00000000  1
  Li  Li37  1  0.04296677  0.81060679  -0.00000000  1
  Li  Li38  1  0.00000000  0.50000000  0.73218329  1
  Li  Li39  1  0.50000000  0.00000000  0.26781671  1
  Li  Li40  1  0.00000000  0.50000000  0.26781671  1
  Li  Li41  1  0.50000000  0.00000000  0.73218329  1
  Li  Li42  1  0.00000000  0.50000000  0.10809598  1
  Li  Li43  1  0.50000000  0.00000000  0.89190402  1
  Li  Li44  1  0.00000000  0.50000000  0.89190402  1
  Li  Li45  1  0.50000000  0.00000000  0.10809598  1
  Li  Li46  1  0.00000000  0.00000000  0.27883477  1
  Li  Li47  1  0.50000000  0.50000000  0.72116523  1
  Li  Li48  1  0.00000000  0.00000000  0.72116523  1
  Li  Li49  1  0.50000000  0.50000000  0.27883477  1
  Li  Li50  1  0.00000000  0.00000000  0.00000000  1
  Li  Li51  1  0.50000000  0.50000000  0.00000000  1
