# generated using pymatgen
data_LiF
_symmetry_space_group_name_H-M   'P 1'
_cell_length_a   14.15732346
_cell_length_b   6.28478602
_cell_length_c   9.68185697
_cell_angle_alpha   90.00000000
_cell_angle_beta   90.00000000
_cell_angle_gamma   90.00000000
_symmetry_Int_Tables_number   1
_chemical_formula_structural   LiF
_chemical_formula_sum   'Li24 F24'
_cell_volume   861.45047120
_cell_formula_units_Z   24
loop_
 _symmetry_equiv_pos_site_id
 _symmetry_equiv_pos_as_xyz
  1  'x, y, z'
loop_
 _atom_site_type_symbol
 _atom_site_label
 _atom_site_symmetry_multiplicity
 _atom_site_fract_x
 _atom_site_fract_y
 _atom_site_fract_z
 _atom_site_occupancy
  F  F0  1  0.23981778  0.53903398  0.64842178  1
  F  F1  1  0.26018222  0.46096602  0.14842178  1
  F  F2  1  0.76018222  0.03903398  0.35157822  1
  F  F3  1  0.73981778  0.96096602  0.85157822  1
  F  F4  1  0.76018222  0.46096602  0.35157822  1
  F  F5  1  0.73981778  0.53903398  0.85157822  1
  F  F6  1  0.23981778  0.96096602  0.64842178  1
  F  F7  1  0.26018222  0.03903398  0.14842178  1
  F  F8  1  0.24830977  0.51418186  0.10025281  1
  F  F9  1  0.25169023  0.48581814  0.60025281  1
  F  F10  1  0.75169023  0.01418186  0.89974719  1
  F  F11  1  0.74830977  0.98581814  0.39974719  1
  F  F12  1  0.75169023  0.48581814  0.89974719  1
  F  F13  1  0.74830977  0.51418186  0.39974719  1
  F  F14  1  0.24830977  0.98581814  0.10025281  1
  F  F15  1  0.25169023  0.01418186  0.60025281  1
  F  F16  1  0.16624127  0.55048807  0.46258648  1
  F  F17  1  0.33375873  0.44951193  0.96258648  1
  F  F18  1  0.83375873  0.05048807  0.53741352  1
  F  F19  1  0.66624127  0.94951193  0.03741352  1
  F  F20  1  0.83375873  0.44951193  0.53741352  1
  F  F21  1  0.66624127  0.55048807  0.03741352  1
  F  F22  1  0.16624127  0.94951193  0.46258648  1
  F  F23  1  0.33375873  0.05048807  0.96258648  1
  Li  Li24  1  0.00000000  0.00000000  0.00000000  1
  Li  Li25  1  0.50000000  0.00000000  0.50000000  1
  Li  Li26  1  0.00000000  0.50000000  -0.00000000  1
  Li  Li27  1  0.50000000  0.50000000  0.50000000  1
  Li  Li28  1  0.73705532  0.42464006  0.60315607  1
  Li  Li29  1  -0.23705532  -0.42464006  1.10315607  1
  Li  Li30  1  -0.73705532  0.92464006  -0.60315607  1
  Li  Li31  1  1.23705532  0.07535994  -0.10315607  1
  Li  Li32  1  -0.73705532  -0.42464006  -0.60315607  1
  Li  Li33  1  1.23705532  0.42464006  -0.10315607  1
  Li  Li34  1  0.73705532  0.07535994  0.60315607  1
  Li  Li35  1  -0.23705532  0.92464006  1.10315607  1
  Li  Li36  1  0.26233503  0.25000000  0.63242410  1
  Li  Li37  1  0.23766497  0.75000000  0.13242410  1
  Li  Li38  1  0.73766497  0.75000000  0.36757590  1
  Li  Li39  1  0.76233503  0.25000000  0.86757590  1
  Li  Li40  1  0.05240555  0.25000000  0.17986161  1
  Li  Li41  1  0.44759445  0.75000000  0.67986161  1
  Li  Li42  1  0.94759445  0.75000000  0.82013839  1
  Li  Li43  1  0.55240555  0.25000000  0.32013839  1
  Li  Li44  1  0.00000000  0.00000000  0.50000000  1
  Li  Li45  1  0.50000000  0.00000000  0.00000000  1
  Li  Li46  1  0.00000000  0.50000000  0.50000000  1
  Li  Li47  1  0.50000000  0.50000000  0.00000000  1
