# generated using pymatgen
data_LiF
_symmetry_space_group_name_H-M   'P 1'
_cell_length_a   9.12664930
_cell_length_b   9.12664930
_cell_length_c   7.94195530
_cell_angle_alpha   90.00000000
_cell_angle_beta   90.00000000
_cell_angle_gamma   120.00000000
_symmetry_Int_Tables_number   1
_chemical_formula_structural   LiF
_chemical_formula_sum   'Li21 F21'
_cell_volume   572.90260260
_cell_formula_units_Z   21
loop_
 _symmetry_equiv_pos_site_id
 _symmetry_equiv_pos_as_xyz
  1  'x, y, z'
loop_
 _atom_site_type_symbol
 _atom_site_label
 _atom_site_symmetry_multiplicity
 _atom_site_fract_x
 _atom_site_fract_y
 _atom_site_fract_z
 _atom_site_occupancy
  F  F0  1  0.30731832  0.79303927  0.37349584  1
  F  F1  1  0.20696073  0.51427904  0.37349584  1
  F  F2  1  0.48572096  0.69268168  0.37349584  1
  F  F3  1  0.20696073  0.69268168  0.62650416  1
  F  F4  1  0.48572096  0.79303927  0.62650416  1
  F  F5  1  0.30731832  0.51427904  0.62650416  1
  F  F6  1  0.33333333  0.66666667  0.00000000  1
  F  F7  1  0.94988818  0.76902824  0.10378693  1
  F  F8  1  0.23097176  0.18085995  0.10378693  1
  F  F9  1  0.81914005  0.05011182  0.10378693  1
  F  F10  1  0.23097176  0.05011182  0.89621307  1
  F  F11  1  0.81914005  0.76902824  0.89621307  1
  F  F12  1  0.94988818  0.18085995  0.89621307  1
  F  F13  1  0.00000000  0.00000000  0.00000000  1
  F  F14  1  0.19664657  0.40507869  0.87607605  1
  F  F15  1  0.59492131  0.79156788  0.87607605  1
  F  F16  1  0.20843212  0.80335343  0.87607605  1
  F  F17  1  0.59492131  0.80335343  0.12392395  1
  F  F18  1  0.20843212  0.40507869  0.12392395  1
  F  F19  1  0.19664657  0.79156788  0.12392395  1
  F  F20  1  0.66666667  0.33333333  0.50000000  1
  Li  Li21  1  0.35679152  0.36516198  0.38637065  1
  Li  Li22  1  -0.36516198  -0.00837046  0.38637065  1
  Li  Li23  1  0.00837046  -0.35679152  0.38637065  1
  Li  Li24  1  -0.36516198  -0.35679152  -0.38637065  1
  Li  Li25  1  0.00837046  0.36516198  -0.38637065  1
  Li  Li26  1  0.35679152  -0.00837046  -0.38637065  1
  Li  Li27  1  0.33333333  0.66666667  0.76418963  1
  Li  Li28  1  0.33333333  0.66666667  0.23581037  1
  Li  Li29  1  0.33333333  0.66666667  0.50000000  1
  Li  Li30  1  0.59741506  0.19046733  0.31023976  1
  Li  Li31  1  0.80953267  0.40694773  0.31023976  1
  Li  Li32  1  0.59305227  0.40258494  0.31023976  1
  Li  Li33  1  0.80953267  0.40258494  0.68976024  1
  Li  Li34  1  0.59305227  0.19046733  0.68976024  1
  Li  Li35  1  0.59741506  0.40694773  0.68976024  1
  Li  Li36  1  0.23996770  0.76003230  0.00000000  1
  Li  Li37  1  0.23996770  0.47993539  0.00000000  1
  Li  Li38  1  0.52006461  0.76003230  -0.00000000  1
  Li  Li39  1  0.75246488  0.24753512  0.50000000  1
  Li  Li40  1  0.75246488  0.50492975  0.50000000  1
  Li  Li41  1  0.49507025  0.24753512  0.50000000  1
