# generated using pymatgen
data_Li3Y2Sb2(PSe)2
_symmetry_space_group_name_H-M   'P 1'
_cell_length_a   5.32175103
_cell_length_b   5.50635888
_cell_length_c   7.25552387
_cell_angle_alpha   94.12420135
_cell_angle_beta   98.98165313
_cell_angle_gamma   106.56527768
_symmetry_Int_Tables_number   1
_chemical_formula_structural   Li3Y2Sb2(PSe)2
_chemical_formula_sum   'Li3 Y2 Sb2 P2 Se2'
_cell_volume   199.76099507
_cell_formula_units_Z   1
loop_
 _symmetry_equiv_pos_site_id
 _symmetry_equiv_pos_as_xyz
  1  'x, y, z'
loop_
 _atom_site_type_symbol
 _atom_site_label
 _atom_site_symmetry_multiplicity
 _atom_site_fract_x
 _atom_site_fract_y
 _atom_site_fract_z
 _atom_site_occupancy
  Y  Y0  1  0.12500000  0.00000000  0.25000000  1
  Y  Y1  1  0.00000000  0.00000000  0.00000000  1
  P  P2  1  0.37500000  0.00000000  0.25000000  1
  P  P3  1  0.25000000  0.25000000  0.25000000  1
  Se  Se4  1  0.00000000  0.25000000  0.12500000  1
  Se  Se5  1  0.53027287  0.47650467  0.84752698  1
  Li  Li6  1  0.29350176  0.17901345  0.99685648  1
  Li  Li7  1  0.10849388  0.09614558  0.84695402  1
  Li  Li8  1  0.92256023  0.15164309  0.07358633  1
  Sb  Sb9  1  0.71224167  0.00447816  0.40583132  1
  Sb  Sb10  1  0.91878016  0.83933970  0.65195537  1
