# generated using pymatgen
data_LiY2P2Se
_symmetry_space_group_name_H-M   'P 1'
_cell_length_a   4.94867635
_cell_length_b   5.13252289
_cell_length_c   6.97970026
_cell_angle_alpha   94.71682180
_cell_angle_beta   99.43524955
_cell_angle_gamma   107.63294887
_symmetry_Int_Tables_number   1
_chemical_formula_structural   LiY2P2Se
_chemical_formula_sum   'Li1 Y2 P2 Se1'
_cell_volume   165.01576053
_cell_formula_units_Z   1
loop_
 _symmetry_equiv_pos_site_id
 _symmetry_equiv_pos_as_xyz
  1  'x, y, z'
loop_
 _atom_site_type_symbol
 _atom_site_label
 _atom_site_symmetry_multiplicity
 _atom_site_fract_x
 _atom_site_fract_y
 _atom_site_fract_z
 _atom_site_occupancy
  Y  Y0  1  0.12500000  0.00000000  0.25000000  1
  Y  Y1  1  0.00000000  0.00000000  0.00000000  1
  P  P2  1  0.37500000  0.00000000  0.25000000  1
  P  P3  1  0.25000000  0.25000000  0.25000000  1
  Se  Se4  1  0.00000000  0.25000000  0.12500000  1
  Li  Li5  1  0.71842232  0.38457161  0.37015022  1
