# generated using pymatgen
data_Li2Y2Cu3P3Se
_symmetry_space_group_name_H-M   'P 1'
_cell_length_a   4.87430881
_cell_length_b   5.21450840
_cell_length_c   6.77743855
_cell_angle_alpha   94.88116177
_cell_angle_beta   99.22858588
_cell_angle_gamma   106.23193114
_symmetry_Int_Tables_number   1
_chemical_formula_structural   Li2Y2Cu3P3Se
_chemical_formula_sum   'Li2 Y2 Cu3 P3 Se1'
_cell_volume   161.71415839
_cell_formula_units_Z   1
loop_
 _symmetry_equiv_pos_site_id
 _symmetry_equiv_pos_as_xyz
  1  'x, y, z'
loop_
 _atom_site_type_symbol
 _atom_site_label
 _atom_site_symmetry_multiplicity
 _atom_site_fract_x
 _atom_site_fract_y
 _atom_site_fract_z
 _atom_site_occupancy
  Se  Se0  1  0.12500000  0.00000000  0.25000000  1
  Cu  Cu1  1  0.00000000  0.00000000  0.00000000  1
  Cu  Cu2  1  0.37500000  0.00000000  0.25000000  1
  Cu  Cu3  1  0.25000000  0.25000000  0.25000000  1
  Y  Y4  1  0.00000000  0.25000000  0.12500000  1
  Y  Y5  1  0.50101933  0.78049665  0.04864586  1
  P  P6  1  0.73002231  0.69919641  0.08143817  1
  P  P7  1  0.94200175  0.22093636  0.71410562  1
  P  P8  1  0.37695829  0.15387125  0.18669522  1
  Li  Li9  1  0.33929957  0.59998426  0.92726527  1
  Li  Li10  1  0.75809270  0.27651379  0.82744878  1
