# generated using pymatgen
data_LiF
_symmetry_space_group_name_H-M   'P 1'
_cell_length_a   4.99452100
_cell_length_b   4.99452100
_cell_length_c   5.93192225
_cell_angle_alpha   90.00000000
_cell_angle_beta   90.00000000
_cell_angle_gamma   120.00000000
_symmetry_Int_Tables_number   1
_chemical_formula_structural   LiF
_chemical_formula_sum   'Li7 F7'
_cell_volume   128.14857135
_cell_formula_units_Z   7
loop_
 _symmetry_equiv_pos_site_id
 _symmetry_equiv_pos_as_xyz
  1  'x, y, z'
loop_
 _atom_site_type_symbol
 _atom_site_label
 _atom_site_symmetry_multiplicity
 _atom_site_fract_x
 _atom_site_fract_y
 _atom_site_fract_z
 _atom_site_occupancy
  F  F0  1  0.21808866  0.41811527  0.24937374  1
  F  F1  1  0.58188473  0.79997339  0.24937374  1
  F  F2  1  0.20002661  0.78191134  0.24937374  1
  F  F3  1  0.58188473  0.78191134  0.75062626  1
  F  F4  1  0.20002661  0.41811527  0.75062626  1
  F  F5  1  0.21808866  0.79997339  0.75062626  1
  F  F6  1  0.66666667  0.33333333  0.50000000  1
  Li  Li7  1  0.33333333  0.66666667  0.00000000  1
  Li  Li8  1  0.51567156  0.91896897  0.83696482  1
  Li  Li9  1  -0.91896897  -0.40329742  0.83696482  1
  Li  Li10  1  0.40329742  -0.51567156  0.83696482  1
  Li  Li11  1  -0.91896897  -0.51567156  -0.83696482  1
  Li  Li12  1  0.40329742  0.91896897  -0.83696482  1
  Li  Li13  1  0.51567156  -0.40329742  -0.83696482  1
