# generated using pymatgen
data_LiF
_symmetry_space_group_name_H-M   'P 1'
_cell_length_a   9.02756765
_cell_length_b   9.02756765
_cell_length_c   8.24595637
_cell_angle_alpha   90.00000000
_cell_angle_beta   90.00000000
_cell_angle_gamma   120.00000000
_symmetry_Int_Tables_number   1
_chemical_formula_structural   LiF
_chemical_formula_sum   'Li17 F17'
_cell_volume   581.98684462
_cell_formula_units_Z   17
loop_
 _symmetry_equiv_pos_site_id
 _symmetry_equiv_pos_as_xyz
  1  'x, y, z'
loop_
 _atom_site_type_symbol
 _atom_site_label
 _atom_site_symmetry_multiplicity
 _atom_site_fract_x
 _atom_site_fract_y
 _atom_site_fract_z
 _atom_site_occupancy
  F  F0  1  0.44335373  0.05672695  0.09198754  1
  F  F1  1  0.94327305  0.38662678  0.09198754  1
  F  F2  1  0.61337322  0.55664627  0.09198754  1
  F  F3  1  0.44335373  0.05672695  0.90801246  1
  F  F4  1  0.94327305  0.38662678  0.90801246  1
  F  F5  1  0.61337322  0.55664627  0.90801246  1
  F  F6  1  0.05672695  0.44335373  0.90801246  1
  F  F7  1  0.38662678  0.94327305  0.90801246  1
  F  F8  1  0.55664627  0.61337322  0.90801246  1
  F  F9  1  0.05672695  0.44335373  0.09198754  1
  F  F10  1  0.38662678  0.94327305  0.09198754  1
  F  F11  1  0.55664627  0.61337322  0.09198754  1
  F  F12  1  0.33333333  0.66666667  0.07721539  1
  F  F13  1  0.33333333  0.66666667  0.92278461  1
  F  F14  1  0.66666667  0.33333333  0.92278461  1
  F  F15  1  0.66666667  0.33333333  0.07721539  1
  F  F16  1  0.00000000  0.00000000  0.50000000  1
  Li  Li17  1  0.69934229  0.54620371  0.73950767  1
  Li  Li18  1  -0.54620371  0.15313858  0.73950767  1
  Li  Li19  1  -0.15313858  -0.69934229  0.73950767  1
  Li  Li20  1  0.69934229  0.54620371  -0.73950767  1
  Li  Li21  1  -0.54620371  0.15313858  -0.73950767  1
  Li  Li22  1  -0.15313858  -0.69934229  -0.73950767  1
  Li  Li23  1  0.54620371  0.69934229  -0.73950767  1
  Li  Li24  1  0.15313858  -0.54620371  -0.73950767  1
  Li  Li25  1  -0.69934229  -0.15313858  -0.73950767  1
  Li  Li26  1  0.54620371  0.69934229  0.73950767  1
  Li  Li27  1  0.15313858  -0.54620371  0.73950767  1
  Li  Li28  1  -0.69934229  -0.15313858  0.73950767  1
  Li  Li29  1  0.33333333  0.66666667  0.64024820  1
  Li  Li30  1  0.33333333  0.66666667  0.35975180  1
  Li  Li31  1  0.66666667  0.33333333  0.35975180  1
  Li  Li32  1  0.66666667  0.33333333  0.64024820  1
  Li  Li33  1  0.00000000  0.00000000  0.00000000  1
