# generated using pymatgen
data_LiF
_symmetry_space_group_name_H-M   'P 1'
_cell_length_a   4.42206711
_cell_length_b   7.51224658
_cell_length_c   5.54053424
_cell_angle_alpha   90.00000000
_cell_angle_beta   90.00000000
_cell_angle_gamma   90.00000000
_symmetry_Int_Tables_number   1
_chemical_formula_structural   LiF
_chemical_formula_sum   'Li8 F8'
_cell_volume   184.05465546
_cell_formula_units_Z   8
loop_
 _symmetry_equiv_pos_site_id
 _symmetry_equiv_pos_as_xyz
  1  'x, y, z'
loop_
 _atom_site_type_symbol
 _atom_site_label
 _atom_site_symmetry_multiplicity
 _atom_site_fract_x
 _atom_site_fract_y
 _atom_site_fract_z
 _atom_site_occupancy
  F  F0  1  0.00000000  0.50000000  0.00000000  1
  F  F1  1  0.50000000  0.00000000  0.50000000  1
  F  F2  1  0.00000000  0.50000000  0.50000000  1
  F  F3  1  0.50000000  0.00000000  0.00000000  1
  F  F4  1  0.68567092  0.62393632  0.00000000  1
  F  F5  1  0.31432908  0.37606368  0.00000000  1
  F  F6  1  0.81432908  0.12393632  0.50000000  1
  F  F7  1  0.18567092  0.87606368  0.50000000  1
  Li  Li8  1  0.30770187  0.19327024  0.37895006  1
  Li  Li9  1  -0.30770187  -0.19327024  0.37895006  1
  Li  Li10  1  0.19229813  0.69327024  0.12104994  1
  Li  Li11  1  0.80770187  0.30672976  0.12104994  1
  Li  Li12  1  -0.30770187  -0.19327024  -0.37895006  1
  Li  Li13  1  0.30770187  0.19327024  -0.37895006  1
  Li  Li14  1  0.80770187  0.30672976  0.87895006  1
  Li  Li15  1  0.19229813  0.69327024  0.87895006  1
