# generated using pymatgen
data_Li3Y2(P2Se)2
_symmetry_space_group_name_H-M   'P 1'
_cell_length_a   4.39038697
_cell_length_b   4.68823853
_cell_length_c   6.94901487
_cell_angle_alpha   95.80484120
_cell_angle_beta   102.64173733
_cell_angle_gamma   113.31574002
_symmetry_Int_Tables_number   1
_chemical_formula_structural   Li3Y2(P2Se)2
_chemical_formula_sum   'Li3 Y2 P4 Se2'
_cell_volume   125.32285614
_cell_formula_units_Z   1
loop_
 _symmetry_equiv_pos_site_id
 _symmetry_equiv_pos_as_xyz
  1  'x, y, z'
loop_
 _atom_site_type_symbol
 _atom_site_label
 _atom_site_symmetry_multiplicity
 _atom_site_fract_x
 _atom_site_fract_y
 _atom_site_fract_z
 _atom_site_occupancy
  P  P0  1  0.00000000  0.00000000  0.00000000  1
  P  P1  1  0.33300000  0.66700000  0.25000000  1
  P  P2  1  0.66700000  0.33300000  0.50000000  1
  P  P3  1  0.00000000  0.00000000  0.75000000  1
  Se  Se4  1  0.81099061  0.74255210  0.17144268  1
  Se  Se5  1  0.76650059  0.21661938  0.79241933  1
  Li  Li6  1  0.82577957  0.62042262  0.06095427  1
  Li  Li7  1  0.27654422  0.50726114  0.46659348  1
  Li  Li8  1  0.23024016  0.05977459  0.82380562  1
  Y  Y9  1  0.93399260  0.98547107  0.79447030  1
  Y  Y10  1  0.46657480  0.34140493  0.58677486  1
