# generated using pymatgen
data_LiF
_symmetry_space_group_name_H-M   'P 1'
_cell_length_a   9.41707585
_cell_length_b   5.78412889
_cell_length_c   15.71155405
_cell_angle_alpha   90.00000000
_cell_angle_beta   90.00000000
_cell_angle_gamma   90.00000000
_symmetry_Int_Tables_number   1
_chemical_formula_structural   LiF
_chemical_formula_sum   'Li24 F24'
_cell_volume   855.80175690
_cell_formula_units_Z   24
loop_
 _symmetry_equiv_pos_site_id
 _symmetry_equiv_pos_as_xyz
  1  'x, y, z'
loop_
 _atom_site_type_symbol
 _atom_site_label
 _atom_site_symmetry_multiplicity
 _atom_site_fract_x
 _atom_site_fract_y
 _atom_site_fract_z
 _atom_site_occupancy
  F  F0  1  0.21373959  0.90366283  0.75564547  1
  F  F1  1  0.28626041  0.09633717  0.25564547  1
  F  F2  1  0.78626041  0.40366283  0.24435453  1
  F  F3  1  0.71373959  0.59633717  0.74435453  1
  F  F4  1  0.78626041  0.09633717  0.24435453  1
  F  F5  1  0.71373959  0.90366283  0.74435453  1
  F  F6  1  0.21373959  0.59633717  0.75564547  1
  F  F7  1  0.28626041  0.40366283  0.25564547  1
  F  F8  1  0.22417775  0.25000000  0.24776435  1
  F  F9  1  0.27582225  0.75000000  0.74776435  1
  F  F10  1  0.77582225  0.75000000  0.75223565  1
  F  F11  1  0.72417775  0.25000000  0.25223565  1
  F  F12  1  0.98853532  0.25000000  0.71585257  1
  F  F13  1  0.51146468  0.75000000  0.21585257  1
  F  F14  1  0.01146468  0.75000000  0.28414743  1
  F  F15  1  0.48853532  0.25000000  0.78414743  1
  F  F16  1  0.30553621  0.66758491  0.47485426  1
  F  F17  1  0.19446379  0.33241509  0.97485426  1
  F  F18  1  0.69446379  0.16758491  0.52514574  1
  F  F19  1  0.80553621  0.83241509  0.02514574  1
  F  F20  1  0.69446379  0.33241509  0.52514574  1
  F  F21  1  0.80553621  0.66758491  0.02514574  1
  F  F22  1  0.30553621  0.83241509  0.47485426  1
  F  F23  1  0.19446379  0.16758491  0.97485426  1
  Li  Li24  1  0.50789457  0.63049508  0.14724875  1
  Li  Li25  1  -0.00789457  -0.63049508  0.64724875  1
  Li  Li26  1  -0.50789457  1.13049508  -0.14724875  1
  Li  Li27  1  1.00789457  -0.13049508  0.35275125  1
  Li  Li28  1  -0.50789457  -0.63049508  -0.14724875  1
  Li  Li29  1  1.00789457  0.63049508  0.35275125  1
  Li  Li30  1  0.50789457  -0.13049508  0.14724875  1
  Li  Li31  1  -0.00789457  1.13049508  0.64724875  1
  Li  Li32  1  0.00000000  0.00000000  0.00000000  1
  Li  Li33  1  0.50000000  0.00000000  0.50000000  1
  Li  Li34  1  0.00000000  0.50000000  0.00000000  1
  Li  Li35  1  0.50000000  0.50000000  0.50000000  1
  Li  Li36  1  0.54996491  0.25000000  0.09524229  1
  Li  Li37  1  0.95003509  0.75000000  0.59524229  1
  Li  Li38  1  0.45003509  0.75000000  0.90475771  1
  Li  Li39  1  0.04996491  0.25000000  0.40475771  1
  Li  Li40  1  0.98191680  0.25000000  0.11007476  1
  Li  Li41  1  0.51808320  0.75000000  0.61007476  1
  Li  Li42  1  0.01808320  0.75000000  0.88992524  1
  Li  Li43  1  0.48191680  0.25000000  0.38992524  1
  Li  Li44  1  0.00000000  0.00000000  0.50000000  1
  Li  Li45  1  0.50000000  0.00000000  0.00000000  1
  Li  Li46  1  0.00000000  0.50000000  0.50000000  1
  Li  Li47  1  0.50000000  0.50000000  0.00000000  1
