# generated using pymatgen
data_Li2YAs4P3
_symmetry_space_group_name_H-M   'P 1'
_cell_length_a   5.72152390
_cell_length_b   5.61819378
_cell_length_c   7.30895853
_cell_angle_alpha   94.18123474
_cell_angle_beta   99.10585999
_cell_angle_gamma   106.79435814
_symmetry_Int_Tables_number   1
_chemical_formula_structural   Li2YAs4P3
_chemical_formula_sum   'Li2 Y1 As4 P3'
_cell_volume   220.33229322
_cell_formula_units_Z   1
loop_
 _symmetry_equiv_pos_site_id
 _symmetry_equiv_pos_as_xyz
  1  'x, y, z'
loop_
 _atom_site_type_symbol
 _atom_site_label
 _atom_site_symmetry_multiplicity
 _atom_site_fract_x
 _atom_site_fract_y
 _atom_site_fract_z
 _atom_site_occupancy
  P  P0  1  0.00000000  0.00000000  0.00000000  1
  P  P1  1  0.50000000  0.50000000  0.50000000  1
  P  P2  1  0.25000000  0.25000000  0.25000000  1
  As  As3  1  0.75000000  0.25000000  0.00000000  1
  As  As4  1  0.25000000  0.75000000  0.50000000  1
  As  As5  1  0.64238264  0.54640274  0.14250835  1
  As  As6  1  0.41518750  0.72014937  0.24675693  1
  Li  Li7  1  0.06910280  0.81966866  0.17445294  1
  Li  Li8  1  0.63370739  0.43116453  0.51154002  1
  Y  Y9  1  0.52216132  0.61214510  0.85255716  1
