# generated using pymatgen
data_Li2Ca3F8
_symmetry_space_group_name_H-M   'P 1'
_cell_length_a   12.30132439
_cell_length_b   12.30132439
_cell_length_c   18.64936117
_cell_angle_alpha   90.00000000
_cell_angle_beta   90.00000000
_cell_angle_gamma   120.00000000
_symmetry_Int_Tables_number   1
_chemical_formula_structural   Li2Ca3F8
_chemical_formula_sum   'Li16 Ca24 F64'
_cell_volume   2443.98386011
_cell_formula_units_Z   8
loop_
 _symmetry_equiv_pos_site_id
 _symmetry_equiv_pos_as_xyz
  1  'x, y, z'
loop_
 _atom_site_type_symbol
 _atom_site_label
 _atom_site_symmetry_multiplicity
 _atom_site_fract_x
 _atom_site_fract_y
 _atom_site_fract_z
 _atom_site_occupancy
  Ca  Ca0  1  0.47710678  0.56244750  0.00000000  1
  Ca  Ca1  1  0.43755250  0.91465927  0.00000000  1
  Ca  Ca2  1  0.08534073  0.52289322  0.00000000  1
  Ca  Ca3  1  0.56244750  0.47710678  0.00000000  1
  Ca  Ca4  1  0.91465927  0.43755250  0.00000000  1
  Ca  Ca5  1  0.52289322  0.08534073  0.00000000  1
  Ca  Ca6  1  0.88355056  0.00000000  0.89835085  1
  Ca  Ca7  1  0.00000000  0.88355056  0.89835085  1
  Ca  Ca8  1  0.11644944  0.11644944  0.89835085  1
  Ca  Ca9  1  0.88355056  0.00000000  0.10164915  1
  Ca  Ca10  1  0.00000000  0.88355056  0.10164915  1
  Ca  Ca11  1  0.11644944  0.11644944  0.10164915  1
  Ca  Ca12  1  0.85596214  0.00000000  0.00000000  1
  Ca  Ca13  1  0.00000000  0.85596214  0.00000000  1
  Ca  Ca14  1  0.14403786  0.14403786  0.00000000  1
  Ca  Ca15  1  0.00000000  0.00000000  0.00000000  1
  Ca  Ca16  1  0.00000000  0.00000000  0.50000000  1
  Ca  Ca17  1  0.17153987  0.00000000  0.50000000  1
  Ca  Ca18  1  0.00000000  0.17153987  0.50000000  1
  Ca  Ca19  1  0.82846013  0.82846013  0.50000000  1
  Ca  Ca20  1  0.33333333  0.66666667  0.19146873  1
  Ca  Ca21  1  0.33333333  0.66666667  0.80853127  1
  Ca  Ca22  1  0.66666667  0.33333333  0.80853127  1
  Ca  Ca23  1  0.66666667  0.33333333  0.19146873  1
  F  F24  1  0.78168144  0.89928830  0.11841557  1
  F  F25  1  -0.89928830  -0.11760686  0.11841557  1
  F  F26  1  0.11760686  -0.78168144  0.11841557  1
  F  F27  1  0.78168144  0.89928830  -0.11841557  1
  F  F28  1  -0.89928830  -0.11760686  -0.11841557  1
  F  F29  1  0.11760686  -0.78168144  -0.11841557  1
  F  F30  1  0.89928830  0.78168144  -0.11841557  1
  F  F31  1  -0.11760686  -0.89928830  -0.11841557  1
  F  F32  1  -0.78168144  0.11760686  -0.11841557  1
  F  F33  1  0.89928830  0.78168144  0.11841557  1
  F  F34  1  -0.11760686  -0.89928830  0.11841557  1
  F  F35  1  -0.78168144  0.11760686  0.11841557  1
  F  F36  1  0.00000000  0.00000000  0.73142195  1
  F  F37  1  0.00000000  0.00000000  0.26857805  1
  F  F38  1  0.44625418  0.36874305  0.41921251  1
  F  F39  1  0.63125695  0.07751113  0.41921251  1
  F  F40  1  0.92248887  0.55374582  0.41921251  1
  F  F41  1  0.44625418  0.36874305  0.58078749  1
  F  F42  1  0.63125695  0.07751113  0.58078749  1
  F  F43  1  0.92248887  0.55374582  0.58078749  1
  F  F44  1  0.36874305  0.44625418  0.58078749  1
  F  F45  1  0.07751113  0.63125695  0.58078749  1
  F  F46  1  0.55374582  0.92248887  0.58078749  1
  F  F47  1  0.36874305  0.44625418  0.41921251  1
  F  F48  1  0.07751113  0.63125695  0.41921251  1
  F  F49  1  0.55374582  0.92248887  0.41921251  1
  F  F50  1  0.44105744  0.34733091  0.86297431  1
  F  F51  1  0.65266909  0.09372654  0.86297431  1
  F  F52  1  0.90627346  0.55894256  0.86297431  1
  F  F53  1  0.44105744  0.34733091  0.13702569  1
  F  F54  1  0.65266909  0.09372654  0.13702569  1
  F  F55  1  0.90627346  0.55894256  0.13702569  1
  F  F56  1  0.34733091  0.44105744  0.13702569  1
  F  F57  1  0.09372654  0.65266909  0.13702569  1
  F  F58  1  0.55894256  0.90627346  0.13702569  1
  F  F59  1  0.34733091  0.44105744  0.86297431  1
  F  F60  1  0.09372654  0.65266909  0.86297431  1
  F  F61  1  0.55894256  0.90627346  0.86297431  1
  F  F62  1  0.36161159  0.83150884  0.06498790  1
  F  F63  1  0.16849116  0.53010275  0.06498790  1
  F  F64  1  0.46989725  0.63838841  0.06498790  1
  F  F65  1  0.36161159  0.83150884  0.93501210  1
  F  F66  1  0.16849116  0.53010275  0.93501210  1
  F  F67  1  0.46989725  0.63838841  0.93501210  1
  F  F68  1  0.83150884  0.36161159  0.93501210  1
  F  F69  1  0.53010275  0.16849116  0.93501210  1
  F  F70  1  0.63838841  0.46989725  0.93501210  1
  F  F71  1  0.83150884  0.36161159  0.06498790  1
  F  F72  1  0.53010275  0.16849116  0.06498790  1
  F  F73  1  0.63838841  0.46989725  0.06498790  1
  F  F74  1  0.47305899  0.14820036  0.93812821  1
  F  F75  1  0.85179964  0.32485863  0.93812821  1
  F  F76  1  0.67514137  0.52694101  0.93812821  1
  F  F77  1  0.47305899  0.14820036  0.06187179  1
  F  F78  1  0.85179964  0.32485863  0.06187179  1
  F  F79  1  0.67514137  0.52694101  0.06187179  1
  F  F80  1  0.14820036  0.47305899  0.06187179  1
  F  F81  1  0.32485863  0.85179964  0.06187179  1
  F  F82  1  0.52694101  0.67514137  0.06187179  1
  F  F83  1  0.14820036  0.47305899  0.93812821  1
  F  F84  1  0.32485863  0.85179964  0.93812821  1
  F  F85  1  0.52694101  0.67514137  0.93812821  1
  F  F86  1  0.33333333  0.66666667  0.50000000  1
  F  F87  1  0.66666667  0.33333333  0.50000000  1
  Li  Li88  1  0.53748433  0.00000000  0.66687128  1
  Li  Li89  1  0.00000000  0.53748433  0.66687128  1
  Li  Li90  1  0.46251567  0.46251567  0.66687128  1
  Li  Li91  1  0.53748433  0.00000000  0.33312872  1
  Li  Li92  1  0.00000000  0.53748433  0.33312872  1
  Li  Li93  1  0.46251567  0.46251567  0.33312872  1
  Li  Li94  1  0.33333333  0.66666667  0.00000000  1
  Li  Li95  1  0.66666667  0.33333333  0.00000000  1
  Li  Li96  1  0.41751812  0.50084489  0.50000000  1
  Li  Li97  1  0.49915511  0.91667322  0.50000000  1
  Li  Li98  1  0.08332678  0.58248188  0.50000000  1
  Li  Li99  1  0.50084489  0.41751812  0.50000000  1
  Li  Li100  1  0.91667322  0.49915511  0.50000000  1
  Li  Li101  1  0.58248188  0.08332678  0.50000000  1
  Li  Li102  1  0.00000000  0.00000000  0.59538848  1
  Li  Li103  1  0.00000000  0.00000000  0.40461152  1
