# generated using pymatgen
data_Li2YAs2(PSe)2
_symmetry_space_group_name_H-M   'P 1'
_cell_length_a   5.65204668
_cell_length_b   5.75684575
_cell_length_c   7.27790454
_cell_angle_alpha   94.15289958
_cell_angle_beta   98.73308779
_cell_angle_gamma   105.16887623
_symmetry_Int_Tables_number   1
_chemical_formula_structural   Li2YAs2(PSe)2
_chemical_formula_sum   'Li2 Y1 As2 P2 Se2'
_cell_volume   224.34121823
_cell_formula_units_Z   1
loop_
 _symmetry_equiv_pos_site_id
 _symmetry_equiv_pos_as_xyz
  1  'x, y, z'
loop_
 _atom_site_type_symbol
 _atom_site_label
 _atom_site_symmetry_multiplicity
 _atom_site_fract_x
 _atom_site_fract_y
 _atom_site_fract_z
 _atom_site_occupancy
  Se  Se0  1  0.12500000  0.00000000  0.25000000  1
  Se  Se1  1  0.00000000  0.00000000  0.00000000  1
  P  P2  1  0.37500000  0.00000000  0.25000000  1
  P  P3  1  0.25000000  0.25000000  0.25000000  1
  As  As4  1  0.00000000  0.25000000  0.12500000  1
  As  As5  1  0.77281202  0.51568507  0.41540661  1
  Li  Li6  1  0.35216341  0.80795701  0.98675991  1
  Li  Li7  1  0.83007738  0.02554730  0.44780107  1
  Y  Y8  1  0.65604259  0.39375810  0.59201442  1
