# generated using pymatgen
data_LiF
_symmetry_space_group_name_H-M   'P 1'
_cell_length_a   4.50071938
_cell_length_b   8.04331514
_cell_length_c   6.34443257
_cell_angle_alpha   90.00000000
_cell_angle_beta   90.00000000
_cell_angle_gamma   90.00000000
_symmetry_Int_Tables_number   1
_chemical_formula_structural   LiF
_chemical_formula_sum   'Li16 F16'
_cell_volume   229.67292767
_cell_formula_units_Z   16
loop_
 _symmetry_equiv_pos_site_id
 _symmetry_equiv_pos_as_xyz
  1  'x, y, z'
loop_
 _atom_site_type_symbol
 _atom_site_label
 _atom_site_symmetry_multiplicity
 _atom_site_fract_x
 _atom_site_fract_y
 _atom_site_fract_z
 _atom_site_occupancy
  F  F0  1  0.68814176  0.72212300  0.76314235  1
  F  F1  1  -0.68814176  -0.72212300  0.76314235  1
  F  F2  1  -0.18814176  1.22212300  -0.76314235  1
  F  F3  1  1.18814176  -0.22212300  -0.76314235  1
  F  F4  1  -0.68814176  -0.72212300  -0.76314235  1
  F  F5  1  0.68814176  0.72212300  -0.76314235  1
  F  F6  1  1.18814176  -0.22212300  0.76314235  1
  F  F7  1  -0.18814176  1.22212300  0.76314235  1
  F  F8  1  0.00000000  0.00000000  0.00000000  1
  F  F9  1  0.50000000  0.50000000  0.00000000  1
  F  F10  1  0.00000000  0.50000000  0.00000000  1
  F  F11  1  0.50000000  0.00000000  0.00000000  1
  F  F12  1  0.00000000  0.00000000  0.50000000  1
  F  F13  1  0.50000000  0.50000000  0.50000000  1
  F  F14  1  0.00000000  0.50000000  0.50000000  1
  F  F15  1  0.50000000  0.00000000  0.50000000  1
  Li  Li16  1  0.38004682  0.11182169  0.64775520  1
  Li  Li17  1  0.61995318  0.88817831  0.64775520  1
  Li  Li18  1  0.11995318  0.61182169  0.35224480  1
  Li  Li19  1  0.88004682  0.38817831  0.35224480  1
  Li  Li20  1  0.61995318  0.88817831  0.35224480  1
  Li  Li21  1  0.38004682  0.11182169  0.35224480  1
  Li  Li22  1  0.88004682  0.38817831  0.64775520  1
  Li  Li23  1  0.11995318  0.61182169  0.64775520  1
  Li  Li24  1  0.84863785  0.93611207  0.23365824  1
  Li  Li25  1  0.15136215  0.06388793  0.23365824  1
  Li  Li26  1  0.65136215  0.43611207  0.76634176  1
  Li  Li27  1  0.34863785  0.56388793  0.76634176  1
  Li  Li28  1  0.15136215  0.06388793  0.76634176  1
  Li  Li29  1  0.84863785  0.93611207  0.76634176  1
  Li  Li30  1  0.34863785  0.56388793  0.23365824  1
  Li  Li31  1  0.65136215  0.43611207  0.23365824  1
