# generated using pymatgen
data_Li3YScF
_symmetry_space_group_name_H-M   'P 1'
_cell_length_a   3.16604219
_cell_length_b   3.08363605
_cell_length_c   5.68285383
_cell_angle_alpha   108.04746595
_cell_angle_beta   105.32683117
_cell_angle_gamma   109.55312150
_symmetry_Int_Tables_number   1
_chemical_formula_structural   Li3YScF
_chemical_formula_sum   'Li3 Y1 Sc1 F1'
_cell_volume   45.32275163
_cell_formula_units_Z   1
loop_
 _symmetry_equiv_pos_site_id
 _symmetry_equiv_pos_as_xyz
  1  'x, y, z'
loop_
 _atom_site_type_symbol
 _atom_site_label
 _atom_site_symmetry_multiplicity
 _atom_site_fract_x
 _atom_site_fract_y
 _atom_site_fract_z
 _atom_site_occupancy
  F  F0  1  0.00000000  0.00000000  0.00000000  1
  Sc  Sc1  1  0.33300000  0.66700000  0.25000000  1
  Y  Y2  1  0.66700000  0.33300000  0.50000000  1
  Li  Li3  1  0.00000000  0.00000000  0.75000000  1
  Li  Li4  1  0.34422568  0.87963626  0.10264818  1
  Li  Li5  1  0.53723932  0.71140901  0.10644109  1
