# generated using pymatgen
data_LiF
_symmetry_space_group_name_H-M   'P 1'
_cell_length_a   10.99203910
_cell_length_b   10.99203910
_cell_length_c   9.61856530
_cell_angle_alpha   90.00000000
_cell_angle_beta   90.00000000
_cell_angle_gamma   90.00000000
_symmetry_Int_Tables_number   1
_chemical_formula_structural   LiF
_chemical_formula_sum   'Li36 F36'
_cell_volume   1162.16241736
_cell_formula_units_Z   36
loop_
 _symmetry_equiv_pos_site_id
 _symmetry_equiv_pos_as_xyz
  1  'x, y, z'
loop_
 _atom_site_type_symbol
 _atom_site_label
 _atom_site_symmetry_multiplicity
 _atom_site_fract_x
 _atom_site_fract_y
 _atom_site_fract_z
 _atom_site_occupancy
  F  F0  1  0.88820017  0.06091431  0.26233781  1
  F  F1  1  -0.38820017  -0.06091431  0.76233781  1
  F  F2  1  0.18908569  1.63820017  0.51233781  1
  F  F3  1  0.31091431  -0.63820017  1.01233781  1
  F  F4  1  -0.38820017  0.06091431  0.23766219  1
  F  F5  1  0.88820017  -0.06091431  -0.26233781  1
  F  F6  1  0.31091431  1.63820017  -0.01233781  1
  F  F7  1  0.18908569  -0.63820017  0.48766219  1
  F  F8  1  -0.88820017  -0.06091431  -0.26233781  1
  F  F9  1  1.38820017  0.06091431  0.23766219  1
  F  F10  1  0.81091431  -0.63820017  0.48766219  1
  F  F11  1  0.68908569  1.63820017  -0.01233781  1
  F  F12  1  1.38820017  -0.06091431  0.76233781  1
  F  F13  1  -0.88820017  0.06091431  0.26233781  1
  F  F14  1  0.68908569  -0.63820017  1.01233781  1
  F  F15  1  0.81091431  1.63820017  0.51233781  1
  F  F16  1  1.38820017  0.56091431  0.76233781  1
  F  F17  1  0.11179983  0.43908569  1.26233781  1
  F  F18  1  0.68908569  2.13820017  1.01233781  1
  F  F19  1  0.81091431  -0.13820017  1.51233781  1
  F  F20  1  0.11179983  0.56091431  0.73766219  1
  F  F21  1  1.38820017  0.43908569  0.23766219  1
  F  F22  1  0.81091431  2.13820017  0.48766219  1
  F  F23  1  0.68908569  -0.13820017  0.98766219  1
  F  F24  1  -0.38820017  0.43908569  0.23766219  1
  F  F25  1  1.88820017  0.56091431  0.73766219  1
  F  F26  1  1.31091431  -0.13820017  0.98766219  1
  F  F27  1  1.18908569  2.13820017  0.48766219  1
  F  F28  1  1.88820017  0.43908569  1.26233781  1
  F  F29  1  -0.38820017  0.56091431  0.76233781  1
  F  F30  1  1.18908569  -0.13820017  1.51233781  1
  F  F31  1  1.31091431  2.13820017  1.01233781  1
  F  F32  1  0.00000000  0.25000000  0.37500000  1
  F  F33  1  0.00000000  0.75000000  0.62500000  1
  F  F34  1  0.50000000  0.75000000  0.87500000  1
  F  F35  1  0.50000000  0.25000000  0.12500000  1
  Li  Li36  1  0.23544641  0.00000000  0.00000000  1
  Li  Li37  1  0.26455359  0.00000000  0.50000000  1
  Li  Li38  1  0.25000000  0.98544641  0.25000000  1
  Li  Li39  1  0.25000000  0.01455359  0.75000000  1
  Li  Li40  1  0.76455359  -0.00000000  -0.00000000  1
  Li  Li41  1  0.73544641  0.00000000  0.50000000  1
  Li  Li42  1  0.75000000  0.01455359  0.75000000  1
  Li  Li43  1  0.75000000  0.98544641  0.25000000  1
  Li  Li44  1  0.73544641  0.50000000  0.50000000  1
  Li  Li45  1  0.76455359  0.50000000  -0.00000000  1
  Li  Li46  1  0.75000000  0.48544641  0.75000000  1
  Li  Li47  1  0.75000000  0.51455359  0.25000000  1
  Li  Li48  1  0.26455359  0.50000000  0.50000000  1
  Li  Li49  1  0.23544641  0.50000000  0.00000000  1
  Li  Li50  1  0.25000000  0.51455359  0.25000000  1
  Li  Li51  1  0.25000000  0.48544641  0.75000000  1
  Li  Li52  1  0.00000000  0.97189641  0.63031656  1
  Li  Li53  1  0.50000000  0.02810359  0.13031656  1
  Li  Li54  1  0.27810359  0.75000000  0.88031656  1
  Li  Li55  1  0.22189641  0.25000000  0.38031656  1
  Li  Li56  1  0.50000000  0.97189641  0.86968344  1
  Li  Li57  1  0.00000000  0.02810359  0.36968344  1
  Li  Li58  1  0.22189641  0.75000000  0.61968344  1
  Li  Li59  1  0.27810359  0.25000000  0.11968344  1
  Li  Li60  1  0.50000000  0.47189641  0.13031656  1
  Li  Li61  1  0.00000000  0.52810359  0.63031656  1
  Li  Li62  1  0.77810359  0.25000000  0.38031656  1
  Li  Li63  1  0.72189641  0.75000000  0.88031656  1
  Li  Li64  1  0.00000000  0.47189641  0.36968344  1
  Li  Li65  1  0.50000000  0.52810359  0.86968344  1
  Li  Li66  1  0.72189641  0.25000000  0.11968344  1
  Li  Li67  1  0.77810359  0.75000000  0.61968344  1
  Li  Li68  1  0.00000000  0.75000000  0.12500000  1
  Li  Li69  1  0.50000000  0.75000000  0.37500000  1
  Li  Li70  1  0.50000000  0.25000000  0.62500000  1
  Li  Li71  1  0.00000000  0.25000000  0.87500000  1
