# generated using pymatgen
data_LiF
_symmetry_space_group_name_H-M   'P 1'
_cell_length_a   18.75613017
_cell_length_b   18.75613017
_cell_length_c   10.22802944
_cell_angle_alpha   90.00000000
_cell_angle_beta   90.00000000
_cell_angle_gamma   120.00000000
_symmetry_Int_Tables_number   1
_chemical_formula_structural   LiF
_chemical_formula_sum   'Li108 F108'
_cell_volume   3116.08343385
_cell_formula_units_Z   108
loop_
 _symmetry_equiv_pos_site_id
 _symmetry_equiv_pos_as_xyz
  1  'x, y, z'
loop_
 _atom_site_type_symbol
 _atom_site_label
 _atom_site_symmetry_multiplicity
 _atom_site_fract_x
 _atom_site_fract_y
 _atom_site_fract_z
 _atom_site_occupancy
  F  F0  1  0.69401170  0.66666137  0.63997507  1
  F  F1  1  0.33333863  0.02735033  0.63997507  1
  F  F2  1  0.97264967  0.30598830  0.63997507  1
  F  F3  1  0.66666137  0.69401170  0.86002493  1
  F  F4  1  0.02735033  0.33333863  0.86002493  1
  F  F5  1  0.30598830  0.97264967  0.86002493  1
  F  F6  1  0.30598830  0.33333863  0.36002493  1
  F  F7  1  0.66666137  0.97264967  0.36002493  1
  F  F8  1  0.02735033  0.69401170  0.36002493  1
  F  F9  1  0.33333863  0.30598830  0.13997507  1
  F  F10  1  0.97264967  0.66666137  0.13997507  1
  F  F11  1  0.69401170  0.02735033  0.13997507  1
  F  F12  1  0.36067836  0.99999470  0.97330841  1
  F  F13  1  0.00000530  0.36068366  0.97330841  1
  F  F14  1  0.63931634  0.63932164  0.97330841  1
  F  F15  1  0.33332804  0.02734503  0.19335826  1
  F  F16  1  0.69401700  0.66667196  0.19335826  1
  F  F17  1  0.97265497  0.30598300  0.19335826  1
  F  F18  1  0.97265497  0.66667196  0.69335826  1
  F  F19  1  0.33332804  0.30598300  0.69335826  1
  F  F20  1  0.69401700  0.02734503  0.69335826  1
  F  F21  1  0.00000530  0.63932164  0.47330841  1
  F  F22  1  0.63931634  0.99999470  0.47330841  1
  F  F23  1  0.36067836  0.36068366  0.47330841  1
  F  F24  1  0.02734503  0.33332804  0.30664174  1
  F  F25  1  0.66667196  0.69401700  0.30664174  1
  F  F26  1  0.30598300  0.97265497  0.30664174  1
  F  F27  1  0.99999470  0.36067836  0.52669159  1
  F  F28  1  0.36068366  0.00000530  0.52669159  1
  F  F29  1  0.63932164  0.63931634  0.52669159  1
  F  F30  1  0.63932164  0.00000530  0.02669159  1
  F  F31  1  0.99999470  0.63931634  0.02669159  1
  F  F32  1  0.36068366  0.36067836  0.02669159  1
  F  F33  1  0.66667196  0.97265497  0.80664174  1
  F  F34  1  0.30598300  0.33332804  0.80664174  1
  F  F35  1  0.02734503  0.69401700  0.80664174  1
  F  F36  1  0.55922346  0.78425155  0.11541913  1
  F  F37  1  0.21574845  0.77497191  0.11541913  1
  F  F38  1  0.22502809  0.44077654  0.11541913  1
  F  F39  1  0.78425155  0.55922346  0.38458087  1
  F  F40  1  0.77497191  0.21574845  0.38458087  1
  F  F41  1  0.44077654  0.22502809  0.38458087  1
  F  F42  1  0.44077654  0.21574845  0.88458087  1
  F  F43  1  0.78425155  0.22502809  0.88458087  1
  F  F44  1  0.77497191  0.55922346  0.88458087  1
  F  F45  1  0.21574845  0.44077654  0.61541913  1
  F  F46  1  0.22502809  0.78425155  0.61541913  1
  F  F47  1  0.55922346  0.77497191  0.61541913  1
  F  F48  1  0.22589013  0.11758489  0.44875246  1
  F  F49  1  0.88241511  0.10830525  0.44875246  1
  F  F50  1  0.89169475  0.77410987  0.44875246  1
  F  F51  1  0.45091822  0.89255680  0.71791420  1
  F  F52  1  0.44163858  0.54908178  0.71791420  1
  F  F53  1  0.10744320  0.55836142  0.71791420  1
  F  F54  1  0.10744320  0.54908178  0.21791420  1
  F  F55  1  0.45091822  0.55836142  0.21791420  1
  F  F56  1  0.44163858  0.89255680  0.21791420  1
  F  F57  1  0.88241511  0.77410987  0.94875246  1
  F  F58  1  0.89169475  0.11758489  0.94875246  1
  F  F59  1  0.22589013  0.10830525  0.94875246  1
  F  F60  1  0.89255680  0.45091822  0.78208580  1
  F  F61  1  0.54908178  0.44163858  0.78208580  1
  F  F62  1  0.55836142  0.10744320  0.78208580  1
  F  F63  1  0.11758489  0.22589013  0.05124754  1
  F  F64  1  0.10830525  0.88241511  0.05124754  1
  F  F65  1  0.77410987  0.89169475  0.05124754  1
  F  F66  1  0.77410987  0.88241511  0.55124754  1
  F  F67  1  0.11758489  0.89169475  0.55124754  1
  F  F68  1  0.10830525  0.22589013  0.55124754  1
  F  F69  1  0.54908178  0.10744320  0.28208580  1
  F  F70  1  0.55836142  0.45091822  0.28208580  1
  F  F71  1  0.89255680  0.44163858  0.28208580  1
  F  F72  1  0.06021332  0.06608471  0.86028693  1
  F  F73  1  0.93391529  0.99412861  0.86028693  1
  F  F74  1  0.00587139  0.93978668  0.86028693  1
  F  F75  1  0.06608471  0.06021332  0.63971307  1
  F  F76  1  0.99412861  0.93391529  0.63971307  1
  F  F77  1  0.93978668  0.00587139  0.63971307  1
  F  F78  1  0.93978668  0.93391529  0.13971307  1
  F  F79  1  0.06608471  0.00587139  0.13971307  1
  F  F80  1  0.99412861  0.06021332  0.13971307  1
  F  F81  1  0.93391529  0.93978668  0.36028693  1
  F  F82  1  0.00587139  0.06608471  0.36028693  1
  F  F83  1  0.06021332  0.99412861  0.36028693  1
  F  F84  1  0.72687999  0.39941804  0.19362027  1
  F  F85  1  0.60058196  0.32746195  0.19362027  1
  F  F86  1  0.67253805  0.27312001  0.19362027  1
  F  F87  1  0.73275137  0.39354666  0.97304640  1
  F  F88  1  0.66079528  0.26724863  0.97304640  1
  F  F89  1  0.60645334  0.33920472  0.97304640  1
  F  F90  1  0.60645334  0.26724863  0.47304640  1
  F  F91  1  0.73275137  0.33920472  0.47304640  1
  F  F92  1  0.66079528  0.39354666  0.47304640  1
  F  F93  1  0.60058196  0.27312001  0.69362027  1
  F  F94  1  0.67253805  0.39941804  0.69362027  1
  F  F95  1  0.72687999  0.32746195  0.69362027  1
  F  F96  1  0.39354666  0.73275137  0.52695360  1
  F  F97  1  0.26724863  0.66079528  0.52695360  1
  F  F98  1  0.33920472  0.60645334  0.52695360  1
  F  F99  1  0.39941804  0.72687999  0.30637973  1
  F  F100  1  0.32746195  0.60058196  0.30637973  1
  F  F101  1  0.27312001  0.67253805  0.30637973  1
  F  F102  1  0.27312001  0.60058196  0.80637973  1
  F  F103  1  0.39941804  0.67253805  0.80637973  1
  F  F104  1  0.32746195  0.72687999  0.80637973  1
  F  F105  1  0.26724863  0.60645334  0.02695360  1
  F  F106  1  0.33920472  0.73275137  0.02695360  1
  F  F107  1  0.39354666  0.66079528  0.02695360  1
  Li  Li108  1  0.11794257  0.71774327  0.16484503  1
  Li  Li109  1  -0.71774327  -0.59980070  0.16484503  1
  Li  Li110  1  0.59980070  -0.11794257  0.16484503  1
  Li  Li111  1  0.71774327  0.11794257  0.33515497  1
  Li  Li112  1  -0.59980070  -0.71774327  0.33515497  1
  Li  Li113  1  -0.11794257  0.59980070  0.33515497  1
  Li  Li114  1  -0.11794257  -0.71774327  -0.16484503  1
  Li  Li115  1  0.71774327  0.59980070  -0.16484503  1
  Li  Li116  1  -0.59980070  0.11794257  -0.16484503  1
  Li  Li117  1  -0.71774327  -0.11794257  0.66484503  1
  Li  Li118  1  0.59980070  0.71774327  0.66484503  1
  Li  Li119  1  0.11794257  -0.59980070  0.66484503  1
  Li  Li120  1  0.78460924  1.05107661  0.49817837  1
  Li  Li121  1  -0.05107661  -0.26646737  0.49817837  1
  Li  Li122  1  1.26646737  0.21539076  0.49817837  1
  Li  Li123  1  1.38440994  0.45127591  0.66848830  1
  Li  Li124  1  0.06686596  -0.38440994  0.66848830  1
  Li  Li125  1  0.54872409  0.93313404  0.66848830  1
  Li  Li126  1  0.54872409  -0.38440994  0.16848830  1
  Li  Li127  1  1.38440994  0.93313404  0.16848830  1
  Li  Li128  1  0.06686596  0.45127591  0.16848830  1
  Li  Li129  1  -0.05107661  0.21539076  0.99817837  1
  Li  Li130  1  1.26646737  1.05107661  0.99817837  1
  Li  Li131  1  0.78460924  -0.26646737  0.99817837  1
  Li  Li132  1  0.45127591  1.38440994  0.83151170  1
  Li  Li133  1  -0.38440994  0.06686596  0.83151170  1
  Li  Li134  1  0.93313404  0.54872409  0.83151170  1
  Li  Li135  1  1.05107661  0.78460924  1.00182163  1
  Li  Li136  1  -0.26646737  -0.05107661  1.00182163  1
  Li  Li137  1  0.21539076  1.26646737  1.00182163  1
  Li  Li138  1  0.21539076  -0.05107661  0.50182163  1
  Li  Li139  1  1.05107661  1.26646737  0.50182163  1
  Li  Li140  1  -0.26646737  0.78460924  0.50182163  1
  Li  Li141  1  -0.38440994  0.54872409  1.33151170  1
  Li  Li142  1  0.93313404  1.38440994  1.33151170  1
  Li  Li143  1  0.45127591  0.06686596  1.33151170  1
  Li  Li144  1  0.00000000  0.00000000  0.17605402  1
  Li  Li145  1  0.00000000  0.00000000  0.32394598  1
  Li  Li146  1  0.00000000  0.00000000  0.82394598  1
  Li  Li147  1  0.00000000  0.00000000  0.67605402  1
  Li  Li148  1  0.66666667  0.33333333  0.50938735  1
  Li  Li149  1  0.66666667  0.33333333  0.65727932  1
  Li  Li150  1  0.66666667  0.33333333  0.15727932  1
  Li  Li151  1  0.66666667  0.33333333  0.00938735  1
  Li  Li152  1  0.33333333  0.66666667  0.84272068  1
  Li  Li153  1  0.33333333  0.66666667  0.99061265  1
  Li  Li154  1  0.33333333  0.66666667  0.49061265  1
  Li  Li155  1  0.33333333  0.66666667  0.34272068  1
  Li  Li156  1  0.00000000  0.00000000  0.00000000  1
  Li  Li157  1  0.00000000  0.00000000  0.50000000  1
  Li  Li158  1  0.66666667  0.33333333  0.33333333  1
  Li  Li159  1  0.66666667  0.33333333  0.83333333  1
  Li  Li160  1  0.33333333  0.66666667  0.66666667  1
  Li  Li161  1  0.33333333  0.66666667  0.16666667  1
  Li  Li162  1  0.72567662  0.00000000  0.25000000  1
  Li  Li163  1  0.00000000  0.72567662  0.25000000  1
  Li  Li164  1  0.27432338  0.27432338  0.25000000  1
  Li  Li165  1  0.27432338  0.00000000  0.75000000  1
  Li  Li166  1  0.00000000  0.27432338  0.75000000  1
  Li  Li167  1  0.72567662  0.72567662  0.75000000  1
  Li  Li168  1  0.39234328  0.33333333  0.58333333  1
  Li  Li169  1  0.66666667  0.05900995  0.58333333  1
  Li  Li170  1  0.94099005  0.60765672  0.58333333  1
  Li  Li171  1  0.94099005  0.33333333  0.08333333  1
  Li  Li172  1  0.66666667  0.60765672  0.08333333  1
  Li  Li173  1  0.39234328  0.05900995  0.08333333  1
  Li  Li174  1  0.05900995  0.66666667  0.91666667  1
  Li  Li175  1  0.33333333  0.39234328  0.91666667  1
  Li  Li176  1  0.60765672  0.94099005  0.91666667  1
  Li  Li177  1  0.60765672  0.66666667  0.41666667  1
  Li  Li178  1  0.33333333  0.94099005  0.41666667  1
  Li  Li179  1  0.05900995  0.39234328  0.41666667  1
  Li  Li180  1  0.61026393  0.11443273  0.34934172  1
  Li  Li181  1  0.88556727  0.49583120  0.34934172  1
  Li  Li182  1  0.50416880  0.38973607  0.34934172  1
  Li  Li183  1  0.11443273  0.61026393  0.15065828  1
  Li  Li184  1  0.49583120  0.88556727  0.15065828  1
  Li  Li185  1  0.38973607  0.50416880  0.15065828  1
  Li  Li186  1  0.38973607  0.88556727  0.65065828  1
  Li  Li187  1  0.11443273  0.50416880  0.65065828  1
  Li  Li188  1  0.49583120  0.61026393  0.65065828  1
  Li  Li189  1  0.88556727  0.38973607  0.84934172  1
  Li  Li190  1  0.50416880  0.11443273  0.84934172  1
  Li  Li191  1  0.61026393  0.49583120  0.84934172  1
  Li  Li192  1  0.27693060  0.44776606  0.68267505  1
  Li  Li193  1  0.55223394  0.82916453  0.68267505  1
  Li  Li194  1  0.17083547  0.72306940  0.68267505  1
  Li  Li195  1  0.78109940  0.94359727  0.48399161  1
  Li  Li196  1  0.16249787  0.21890060  0.48399161  1
  Li  Li197  1  0.05640273  0.83750213  0.48399161  1
  Li  Li198  1  0.05640273  0.21890060  0.98399161  1
  Li  Li199  1  0.78109940  0.83750213  0.98399161  1
  Li  Li200  1  0.16249787  0.94359727  0.98399161  1
  Li  Li201  1  0.55223394  0.72306940  0.18267505  1
  Li  Li202  1  0.17083547  0.44776606  0.18267505  1
  Li  Li203  1  0.27693060  0.82916453  0.18267505  1
  Li  Li204  1  0.94359727  0.78109940  0.01600839  1
  Li  Li205  1  0.21890060  0.16249787  0.01600839  1
  Li  Li206  1  0.83750213  0.05640273  0.01600839  1
  Li  Li207  1  0.44776606  0.27693060  0.81732495  1
  Li  Li208  1  0.82916453  0.55223394  0.81732495  1
  Li  Li209  1  0.72306940  0.17083547  0.81732495  1
  Li  Li210  1  0.72306940  0.55223394  0.31732495  1
  Li  Li211  1  0.44776606  0.17083547  0.31732495  1
  Li  Li212  1  0.82916453  0.27693060  0.31732495  1
  Li  Li213  1  0.21890060  0.05640273  0.51600839  1
  Li  Li214  1  0.83750213  0.78109940  0.51600839  1
  Li  Li215  1  0.94359727  0.16249787  0.51600839  1
