# generated using pymatgen
data_LiF
_symmetry_space_group_name_H-M   'P 1'
_cell_length_a   7.43677222
_cell_length_b   6.65043803
_cell_length_c   9.77476014
_cell_angle_alpha   90.00000000
_cell_angle_beta   90.00000000
_cell_angle_gamma   90.00000000
_symmetry_Int_Tables_number   1
_chemical_formula_structural   LiF
_chemical_formula_sum   'Li20 F20'
_cell_volume   483.43806139
_cell_formula_units_Z   20
loop_
 _symmetry_equiv_pos_site_id
 _symmetry_equiv_pos_as_xyz
  1  'x, y, z'
loop_
 _atom_site_type_symbol
 _atom_site_label
 _atom_site_symmetry_multiplicity
 _atom_site_fract_x
 _atom_site_fract_y
 _atom_site_fract_z
 _atom_site_occupancy
  F  F0  1  0.08854523  0.65154140  0.00000000  1
  F  F1  1  0.91145477  0.34845860  0.00000000  1
  F  F2  1  0.41145477  0.15154140  0.50000000  1
  F  F3  1  0.58854523  0.84845860  0.50000000  1
  F  F4  1  0.33348860  0.58509830  0.64269527  1
  F  F5  1  -0.33348860  -0.58509830  0.64269527  1
  F  F6  1  0.16651140  1.08509830  -0.14269527  1
  F  F7  1  0.83348860  -0.08509830  -0.14269527  1
  F  F8  1  -0.33348860  -0.58509830  -0.64269527  1
  F  F9  1  0.33348860  0.58509830  -0.64269527  1
  F  F10  1  0.83348860  -0.08509830  1.14269527  1
  F  F11  1  0.16651140  1.08509830  1.14269527  1
  F  F12  1  0.00000000  0.50000000  0.60725061  1
  F  F13  1  0.50000000  0.00000000  0.89274939  1
  F  F14  1  0.00000000  0.50000000  0.39274939  1
  F  F15  1  0.50000000  0.00000000  0.10725061  1
  F  F16  1  0.00000000  0.00000000  0.00000000  1
  F  F17  1  0.50000000  0.50000000  0.50000000  1
  F  F18  1  0.00000000  0.50000000  0.00000000  1
  F  F19  1  0.50000000  0.00000000  0.50000000  1
  Li  Li20  1  0.08730653  0.11285729  0.28973416  1
  Li  Li21  1  0.91269347  0.88714271  0.28973416  1
  Li  Li22  1  0.41269347  0.61285729  0.21026584  1
  Li  Li23  1  0.58730653  0.38714271  0.21026584  1
  Li  Li24  1  0.91269347  0.88714271  0.71026584  1
  Li  Li25  1  0.08730653  0.11285729  0.71026584  1
  Li  Li26  1  0.58730653  0.38714271  0.78973416  1
  Li  Li27  1  0.41269347  0.61285729  0.78973416  1
  Li  Li28  1  0.00000000  0.50000000  0.50000000  1
  Li  Li29  1  0.50000000  0.00000000  0.00000000  1
  Li  Li30  1  0.34240950  0.35236754  0.78849819  1
  Li  Li31  1  0.65759050  0.64763246  0.78849819  1
  Li  Li32  1  0.15759050  0.85236754  0.71150181  1
  Li  Li33  1  0.84240950  0.14763246  0.71150181  1
  Li  Li34  1  0.65759050  0.64763246  0.21150181  1
  Li  Li35  1  0.34240950  0.35236754  0.21150181  1
  Li  Li36  1  0.84240950  0.14763246  0.28849819  1
  Li  Li37  1  0.15759050  0.85236754  0.28849819  1
  Li  Li38  1  0.00000000  0.00000000  0.50000000  1
  Li  Li39  1  0.50000000  0.50000000  0.00000000  1
