# generated using pymatgen
data_LiF
_symmetry_space_group_name_H-M   'P 1'
_cell_length_a   8.53197902
_cell_length_b   8.45924618
_cell_length_c   5.86549966
_cell_angle_alpha   90.00000000
_cell_angle_beta   90.00000000
_cell_angle_gamma   90.00000000
_symmetry_Int_Tables_number   1
_chemical_formula_structural   LiF
_chemical_formula_sum   'Li28 F28'
_cell_volume   423.33722344
_cell_formula_units_Z   28
loop_
 _symmetry_equiv_pos_site_id
 _symmetry_equiv_pos_as_xyz
  1  'x, y, z'
loop_
 _atom_site_type_symbol
 _atom_site_label
 _atom_site_symmetry_multiplicity
 _atom_site_fract_x
 _atom_site_fract_y
 _atom_site_fract_z
 _atom_site_occupancy
  F  F0  1  0.94540344  0.85448288  0.82738811  1
  F  F1  1  0.55459656  0.14551712  0.32738811  1
  F  F2  1  0.05459656  0.35448288  0.17261189  1
  F  F3  1  0.44540344  0.64551712  0.67261189  1
  F  F4  1  0.05459656  0.14551712  0.17261189  1
  F  F5  1  0.44540344  0.85448288  0.67261189  1
  F  F6  1  0.94540344  0.64551712  0.82738811  1
  F  F7  1  0.55459656  0.35448288  0.32738811  1
  F  F8  1  0.10646877  0.35164425  0.04619995  1
  F  F9  1  0.39353123  0.64835575  0.54619995  1
  F  F10  1  0.89353123  0.85164425  0.95380005  1
  F  F11  1  0.60646877  0.14835575  0.45380005  1
  F  F12  1  0.89353123  0.64835575  0.95380005  1
  F  F13  1  0.60646877  0.35164425  0.45380005  1
  F  F14  1  0.10646877  0.14835575  0.04619995  1
  F  F15  1  0.39353123  0.85164425  0.54619995  1
  F  F16  1  0.94298196  0.25000000  0.46402824  1
  F  F17  1  0.55701804  0.75000000  0.96402824  1
  F  F18  1  0.05701804  0.75000000  0.53597176  1
  F  F19  1  0.44298196  0.25000000  0.03597176  1
  F  F20  1  0.39881944  0.34048509  0.58105374  1
  F  F21  1  0.10118056  0.65951491  0.08105374  1
  F  F22  1  0.60118056  0.84048509  0.41894626  1
  F  F23  1  0.89881944  0.15951491  0.91894626  1
  F  F24  1  0.60118056  0.65951491  0.41894626  1
  F  F25  1  0.89881944  0.34048509  0.91894626  1
  F  F26  1  0.39881944  0.15951491  0.58105374  1
  F  F27  1  0.10118056  0.84048509  0.08105374  1
  Li  Li28  1  0.13715547  0.25000000  0.71729328  1
  Li  Li29  1  0.36284453  0.75000000  0.21729328  1
  Li  Li30  1  0.86284453  0.75000000  0.28270672  1
  Li  Li31  1  0.63715547  0.25000000  0.78270672  1
  Li  Li32  1  0.99898208  0.60382809  0.96453414  1
  Li  Li33  1  -0.49898208  -0.60382809  1.46453414  1
  Li  Li34  1  -0.99898208  1.10382809  -0.96453414  1
  Li  Li35  1  1.49898208  -0.10382809  -0.46453414  1
  Li  Li36  1  -0.99898208  -0.60382809  -0.96453414  1
  Li  Li37  1  1.49898208  0.60382809  -0.46453414  1
  Li  Li38  1  0.99898208  -0.10382809  0.96453414  1
  Li  Li39  1  -0.49898208  1.10382809  1.46453414  1
  Li  Li40  1  0.49457278  0.25000000  0.38528905  1
  Li  Li41  1  0.00542722  0.75000000  0.88528905  1
  Li  Li42  1  0.50542722  0.75000000  0.61471095  1
  Li  Li43  1  0.99457278  0.25000000  0.11471095  1
  Li  Li44  1  0.35764810  0.35175470  0.18116752  1
  Li  Li45  1  0.14235190  0.64824530  0.68116752  1
  Li  Li46  1  0.64235190  0.85175470  0.81883248  1
  Li  Li47  1  0.85764810  0.14824530  0.31883248  1
  Li  Li48  1  0.64235190  0.64824530  0.81883248  1
  Li  Li49  1  0.85764810  0.35175470  0.31883248  1
  Li  Li50  1  0.35764810  0.14824530  0.18116752  1
  Li  Li51  1  0.14235190  0.85175470  0.68116752  1
  Li  Li52  1  0.00000000  0.00000000  0.50000000  1
  Li  Li53  1  0.50000000  0.00000000  0.00000000  1
  Li  Li54  1  0.00000000  0.50000000  0.50000000  1
  Li  Li55  1  0.50000000  0.50000000  0.00000000  1
