# generated using pymatgen
data_LiCaF3
_symmetry_space_group_name_H-M   'P 1'
_cell_length_a   9.85512023
_cell_length_b   9.85512023
_cell_length_c   19.51405989
_cell_angle_alpha   90.00000000
_cell_angle_beta   90.00000000
_cell_angle_gamma   120.00000000
_symmetry_Int_Tables_number   1
_chemical_formula_structural   LiCaF3
_chemical_formula_sum   'Li18 Ca18 F54'
_cell_volume   1641.35347372
_cell_formula_units_Z   18
loop_
 _symmetry_equiv_pos_site_id
 _symmetry_equiv_pos_as_xyz
  1  'x, y, z'
loop_
 _atom_site_type_symbol
 _atom_site_label
 _atom_site_symmetry_multiplicity
 _atom_site_fract_x
 _atom_site_fract_y
 _atom_site_fract_z
 _atom_site_occupancy
  Ca  Ca0  1  0.00000000  0.00000000  0.00000000  1
  Ca  Ca1  1  0.00000000  0.00000000  0.50000000  1
  Ca  Ca2  1  0.66666667  0.33333333  0.33333333  1
  Ca  Ca3  1  0.66666667  0.33333333  0.83333333  1
  Ca  Ca4  1  0.33333333  0.66666667  0.66666667  1
  Ca  Ca5  1  0.33333333  0.66666667  0.16666667  1
  Ca  Ca6  1  0.00000000  0.00000000  0.61083114  1
  Ca  Ca7  1  0.00000000  0.00000000  0.88916886  1
  Ca  Ca8  1  0.00000000  0.00000000  0.38916886  1
  Ca  Ca9  1  0.00000000  0.00000000  0.11083114  1
  Ca  Ca10  1  0.66666667  0.33333333  0.94416447  1
  Ca  Ca11  1  0.66666667  0.33333333  0.22250219  1
  Ca  Ca12  1  0.66666667  0.33333333  0.72250219  1
  Ca  Ca13  1  0.66666667  0.33333333  0.44416447  1
  Ca  Ca14  1  0.33333333  0.66666667  0.27749781  1
  Ca  Ca15  1  0.33333333  0.66666667  0.55583553  1
  Ca  Ca16  1  0.33333333  0.66666667  0.05583553  1
  Ca  Ca17  1  0.33333333  0.66666667  0.77749781  1
  F  F18  1  0.19770938  -0.00000000  0.25000000  1
  F  F19  1  0.00000000  0.19770938  0.25000000  1
  F  F20  1  0.80229062  0.80229062  0.25000000  1
  F  F21  1  0.80229062  -0.00000000  0.75000000  1
  F  F22  1  0.00000000  0.80229062  0.75000000  1
  F  F23  1  0.19770938  0.19770938  0.75000000  1
  F  F24  1  0.86437605  0.33333333  0.58333333  1
  F  F25  1  0.66666667  0.53104271  0.58333333  1
  F  F26  1  0.46895729  0.13562395  0.58333333  1
  F  F27  1  0.46895729  0.33333333  0.08333333  1
  F  F28  1  0.66666667  0.13562395  0.08333333  1
  F  F29  1  0.86437605  0.53104271  0.08333333  1
  F  F30  1  0.53104271  0.66666667  0.91666667  1
  F  F31  1  0.33333333  0.86437605  0.91666667  1
  F  F32  1  0.13562395  0.46895729  0.91666667  1
  F  F33  1  0.13562395  0.66666667  0.41666667  1
  F  F34  1  0.33333333  0.46895729  0.41666667  1
  F  F35  1  0.53104271  0.86437605  0.41666667  1
  F  F36  1  0.45333685  0.52544678  0.40759741  1
  F  F37  1  -0.52544678  -0.07210993  0.40759741  1
  F  F38  1  0.07210993  -0.45333685  0.40759741  1
  F  F39  1  0.52544678  0.45333685  0.09240259  1
  F  F40  1  -0.07210993  -0.52544678  0.09240259  1
  F  F41  1  -0.45333685  0.07210993  0.09240259  1
  F  F42  1  -0.45333685  -0.52544678  -0.40759741  1
  F  F43  1  0.52544678  0.07210993  -0.40759741  1
  F  F44  1  -0.07210993  0.45333685  -0.40759741  1
  F  F45  1  -0.52544678  -0.45333685  0.90759741  1
  F  F46  1  0.07210993  0.52544678  0.90759741  1
  F  F47  1  0.45333685  -0.07210993  0.90759741  1
  F  F48  1  1.12000352  0.85878011  0.74093074  1
  F  F49  1  0.14121989  0.26122340  0.74093074  1
  F  F50  1  0.73877660  -0.12000352  0.74093074  1
  F  F51  1  1.19211345  0.78667018  0.42573593  1
  F  F52  1  0.59455674  -0.19211345  0.42573593  1
  F  F53  1  0.21332982  0.40544326  0.42573593  1
  F  F54  1  0.21332982  -0.19211345  -0.07426407  1
  F  F55  1  1.19211345  0.40544326  -0.07426407  1
  F  F56  1  0.59455674  0.78667018  -0.07426407  1
  F  F57  1  0.14121989  -0.12000352  1.24093074  1
  F  F58  1  0.73877660  0.85878011  1.24093074  1
  F  F59  1  1.12000352  0.26122340  1.24093074  1
  F  F60  1  0.78667018  1.19211345  1.07426407  1
  F  F61  1  -0.19211345  0.59455674  1.07426407  1
  F  F62  1  0.40544326  0.21332982  1.07426407  1
  F  F63  1  0.85878011  1.12000352  0.75906926  1
  F  F64  1  0.26122340  0.14121989  0.75906926  1
  F  F65  1  -0.12000352  0.73877660  0.75906926  1
  F  F66  1  -0.12000352  0.14121989  0.25906926  1
  F  F67  1  0.85878011  0.73877660  0.25906926  1
  F  F68  1  0.26122340  1.12000352  0.25906926  1
  F  F69  1  -0.19211345  0.21332982  1.57426407  1
  F  F70  1  0.40544326  1.19211345  1.57426407  1
  F  F71  1  0.78667018  0.59455674  1.57426407  1
  Li  Li72  1  0.50000000  0.00000000  0.00000000  1
  Li  Li73  1  0.00000000  0.50000000  0.00000000  1
  Li  Li74  1  0.50000000  0.50000000  0.00000000  1
  Li  Li75  1  0.00000000  0.50000000  0.50000000  1
  Li  Li76  1  0.50000000  0.00000000  0.50000000  1
  Li  Li77  1  0.50000000  0.50000000  0.50000000  1
  Li  Li78  1  0.16666667  0.33333333  0.33333333  1
  Li  Li79  1  0.66666667  0.83333333  0.33333333  1
  Li  Li80  1  0.16666667  0.83333333  0.33333333  1
  Li  Li81  1  0.66666667  0.83333333  0.83333333  1
  Li  Li82  1  0.16666667  0.33333333  0.83333333  1
  Li  Li83  1  0.16666667  0.83333333  0.83333333  1
  Li  Li84  1  0.83333333  0.66666667  0.66666667  1
  Li  Li85  1  0.33333333  0.16666667  0.66666667  1
  Li  Li86  1  0.83333333  0.16666667  0.66666667  1
  Li  Li87  1  0.33333333  0.16666667  0.16666667  1
  Li  Li88  1  0.83333333  0.66666667  0.16666667  1
  Li  Li89  1  0.83333333  0.16666667  0.16666667  1
