# generated using pymatgen
data_LiF
_symmetry_space_group_name_H-M   'P 1'
_cell_length_a   10.64407196
_cell_length_b   10.64407196
_cell_length_c   20.51612940
_cell_angle_alpha   90.00000000
_cell_angle_beta   90.00000000
_cell_angle_gamma   120.00000000
_symmetry_Int_Tables_number   1
_chemical_formula_structural   LiF
_chemical_formula_sum   'Li72 F72'
_cell_volume   2012.99022298
_cell_formula_units_Z   72
loop_
 _symmetry_equiv_pos_site_id
 _symmetry_equiv_pos_as_xyz
  1  'x, y, z'
loop_
 _atom_site_type_symbol
 _atom_site_label
 _atom_site_symmetry_multiplicity
 _atom_site_fract_x
 _atom_site_fract_y
 _atom_site_fract_z
 _atom_site_occupancy
  F  F0  1  0.33333333  0.66666667  0.50000000  1
  F  F1  1  0.73565091  0.26434909  0.00000000  1
  F  F2  1  0.73565091  0.47130181  0.00000000  1
  F  F3  1  0.52869819  0.26434909  0.00000000  1
  F  F4  1  0.02728998  0.42662192  0.63731296  1
  F  F5  1  0.57337808  0.60066806  0.63731296  1
  F  F6  1  0.39933194  0.97271002  0.63731296  1
  F  F7  1  0.57337808  0.97271002  0.36268704  1
  F  F8  1  0.39933194  0.42662192  0.36268704  1
  F  F9  1  0.02728998  0.60066806  0.36268704  1
  F  F10  1  0.45216112  0.97340019  0.30867168  1
  F  F11  1  0.02659981  0.47876094  0.30867168  1
  F  F12  1  0.52123906  0.54783888  0.30867168  1
  F  F13  1  0.02659981  0.54783888  0.69132832  1
  F  F14  1  0.52123906  0.97340019  0.69132832  1
  F  F15  1  0.45216112  0.47876094  0.69132832  1
  F  F16  1  0.68159378  0.92684978  0.25164666  1
  F  F17  1  0.07315022  0.75474400  0.25164666  1
  F  F18  1  0.24525600  0.31840622  0.25164666  1
  F  F19  1  0.07315022  0.31840622  0.74835334  1
  F  F20  1  0.24525600  0.92684978  0.74835334  1
  F  F21  1  0.68159378  0.75474400  0.74835334  1
  F  F22  1  0.31205723  0.14674174  0.93041244  1
  F  F23  1  0.85325826  0.16531548  0.93041244  1
  F  F24  1  0.83468452  0.68794277  0.93041244  1
  F  F25  1  0.85325826  0.68794277  0.06958756  1
  F  F26  1  0.83468452  0.14674174  0.06958756  1
  F  F27  1  0.31205723  0.16531548  0.06958756  1
  F  F28  1  0.77520219  0.74021343  0.27963969  1
  F  F29  1  0.25978657  0.03498875  0.27963969  1
  F  F30  1  0.96501125  0.22479781  0.27963969  1
  F  F31  1  0.25978657  0.22479781  0.72036031  1
  F  F32  1  0.96501125  0.74021343  0.72036031  1
  F  F33  1  0.77520219  0.03498875  0.72036031  1
  F  F34  1  0.69243297  0.47238744  0.72085772  1
  F  F35  1  0.52761256  0.22004553  0.72085772  1
  F  F36  1  0.77995447  0.30756703  0.72085772  1
  F  F37  1  0.52761256  0.30756703  0.27914228  1
  F  F38  1  0.77995447  0.47238744  0.27914228  1
  F  F39  1  0.69243297  0.22004553  0.27914228  1
  F  F40  1  0.56542964  0.82401025  0.23168352  1
  F  F41  1  0.17598975  0.74141939  0.23168352  1
  F  F42  1  0.25858061  0.43457036  0.23168352  1
  F  F43  1  0.17598975  0.43457036  0.76831648  1
  F  F44  1  0.25858061  0.82401025  0.76831648  1
  F  F45  1  0.56542964  0.74141939  0.76831648  1
  F  F46  1  0.75691326  0.30747140  0.42213344  1
  F  F47  1  0.69252860  0.44944186  0.42213344  1
  F  F48  1  0.55055814  0.24308674  0.42213344  1
  F  F49  1  0.69252860  0.24308674  0.57786656  1
  F  F50  1  0.55055814  0.30747140  0.57786656  1
  F  F51  1  0.75691326  0.44944186  0.57786656  1
  F  F52  1  0.33333333  0.66666667  0.75030188  1
  F  F53  1  0.33333333  0.66666667  0.24969812  1
  F  F54  1  0.33333333  0.66666667  0.15860194  1
  F  F55  1  0.33333333  0.66666667  0.84139806  1
  F  F56  1  0.71464199  0.17751580  0.42531663  1
  F  F57  1  0.82248420  0.53712618  0.42531663  1
  F  F58  1  0.46287382  0.28535801  0.42531663  1
  F  F59  1  0.82248420  0.28535801  0.57468337  1
  F  F60  1  0.46287382  0.17751580  0.57468337  1
  F  F61  1  0.71464199  0.53712618  0.57468337  1
  F  F62  1  0.66666667  0.33333333  0.00000000  1
  F  F63  1  0.46861699  0.10707298  0.13896251  1
  F  F64  1  0.89292702  0.36154401  0.13896251  1
  F  F65  1  0.63845599  0.53138301  0.13896251  1
  F  F66  1  0.89292702  0.53138301  0.86103749  1
  F  F67  1  0.63845599  0.10707298  0.86103749  1
  F  F68  1  0.46861699  0.36154401  0.86103749  1
  F  F69  1  0.49548603  0.50451397  -0.00000000  1
  F  F70  1  0.49548603  0.99097207  0.00000000  1
  F  F71  1  0.00902793  0.50451397  0.00000000  1
  Li  Li72  1  0.47451245  0.48832646  0.75257627  1
  Li  Li73  1  -0.48832646  -0.01381401  0.75257627  1
  Li  Li74  1  0.01381401  -0.47451245  0.75257627  1
  Li  Li75  1  -0.48832646  -0.47451245  -0.75257627  1
  Li  Li76  1  0.01381401  0.48832646  -0.75257627  1
  Li  Li77  1  0.47451245  -0.01381401  -0.75257627  1
  Li  Li78  1  0.11266042  0.75733932  0.09083832  1
  Li  Li79  1  0.24266068  0.35532110  0.09083832  1
  Li  Li80  1  0.64467890  0.88733958  0.09083832  1
  Li  Li81  1  0.24266068  0.88733958  0.90916168  1
  Li  Li82  1  0.64467890  0.75733932  0.90916168  1
  Li  Li83  1  0.11266042  0.35532110  0.90916168  1
  Li  Li84  1  0.89812668  0.10187332  0.00000000  1
  Li  Li85  1  0.89812668  0.79625337  0.00000000  1
  Li  Li86  1  0.20374663  0.10187332  0.00000000  1
  Li  Li87  1  0.03979681  0.85415738  0.33904906  1
  Li  Li88  1  0.14584262  0.18563943  0.33904906  1
  Li  Li89  1  0.81436057  0.96020319  0.33904906  1
  Li  Li90  1  0.14584262  0.96020319  0.66095094  1
  Li  Li91  1  0.81436057  0.85415738  0.66095094  1
  Li  Li92  1  0.03979681  0.18563943  0.66095094  1
  Li  Li93  1  0.66666667  0.33333333  0.33632821  1
  Li  Li94  1  0.66666667  0.33333333  0.66367179  1
  Li  Li95  1  0.00000000  0.00000000  0.50000000  1
  Li  Li96  1  0.08836746  0.40752842  0.08617958  1
  Li  Li97  1  0.59247158  0.68083904  0.08617958  1
  Li  Li98  1  0.31916096  0.91163254  0.08617958  1
  Li  Li99  1  0.59247158  0.91163254  0.91382042  1
  Li  Li100  1  0.31916096  0.40752842  0.91382042  1
  Li  Li101  1  0.08836746  0.68083904  0.91382042  1
  Li  Li102  1  0.11018144  0.88981856  -0.00000000  1
  Li  Li103  1  0.11018144  0.22036288  -0.00000000  1
  Li  Li104  1  0.77963712  0.88981856  -0.00000000  1
  Li  Li105  1  0.08486456  0.50709612  0.43921068  1
  Li  Li106  1  0.49290388  0.57776844  0.43921068  1
  Li  Li107  1  0.42223156  0.91513544  0.43921068  1
  Li  Li108  1  0.49290388  0.91513544  0.56078932  1
  Li  Li109  1  0.42223156  0.50709612  0.56078932  1
  Li  Li110  1  0.08486456  0.57776844  0.56078932  1
  Li  Li111  1  0.70636440  0.85411590  0.46302102  1
  Li  Li112  1  0.14588410  0.85224850  0.46302102  1
  Li  Li113  1  0.14775150  0.29363560  0.46302102  1
  Li  Li114  1  0.14588410  0.29363560  0.53697898  1
  Li  Li115  1  0.14775150  0.85411590  0.53697898  1
  Li  Li116  1  0.70636440  0.85224850  0.53697898  1
  Li  Li117  1  0.33333333  0.66666667  0.00000000  1
  Li  Li118  1  0.00000000  0.00000000  0.00000000  1
  Li  Li119  1  0.67063795  0.51533076  0.94975174  1
  Li  Li120  1  0.48466924  0.15530719  0.94975174  1
  Li  Li121  1  0.84469281  0.32936205  0.94975174  1
  Li  Li122  1  0.48466924  0.32936205  0.05024826  1
  Li  Li123  1  0.84469281  0.51533076  0.05024826  1
  Li  Li124  1  0.67063795  0.15530719  0.05024826  1
  Li  Li125  1  0.66666667  0.33333333  0.15108662  1
  Li  Li126  1  0.66666667  0.33333333  0.84891338  1
  Li  Li127  1  0.28174284  0.09540922  0.80279021  1
  Li  Li128  1  0.90459078  0.18633363  0.80279021  1
  Li  Li129  1  0.81366637  0.71825716  0.80279021  1
  Li  Li130  1  0.90459078  0.71825716  0.19720979  1
  Li  Li131  1  0.81366637  0.09540922  0.19720979  1
  Li  Li132  1  0.28174284  0.18633363  0.19720979  1
  Li  Li133  1  0.87008270  0.16089989  0.71902884  1
  Li  Li134  1  0.83910011  0.70918282  0.71902884  1
  Li  Li135  1  0.29081718  0.12991730  0.71902884  1
  Li  Li136  1  0.83910011  0.12991730  0.28097116  1
  Li  Li137  1  0.29081718  0.16089989  0.28097116  1
  Li  Li138  1  0.87008270  0.70918282  0.28097116  1
  Li  Li139  1  0.23381036  0.76618964  -0.00000000  1
  Li  Li140  1  0.23381036  0.46762073  0.00000000  1
  Li  Li141  1  0.53237927  0.76618964  0.00000000  1
  Li  Li142  1  0.00000000  0.00000000  0.39892372  1
  Li  Li143  1  0.00000000  0.00000000  0.60107628  1
