# generated using pymatgen
data_Li2Y2MoP3Se2
_symmetry_space_group_name_H-M   'P 1'
_cell_length_a   5.29153841
_cell_length_b   5.55486859
_cell_length_c   7.21330930
_cell_angle_alpha   94.24063677
_cell_angle_beta   99.23522526
_cell_angle_gamma   107.03295248
_symmetry_Int_Tables_number   1
_chemical_formula_structural   Li2Y2MoP3Se2
_chemical_formula_sum   'Li2 Y2 Mo1 P3 Se2'
_cell_volume   198.44828064
_cell_formula_units_Z   1
loop_
 _symmetry_equiv_pos_site_id
 _symmetry_equiv_pos_as_xyz
  1  'x, y, z'
loop_
 _atom_site_type_symbol
 _atom_site_label
 _atom_site_symmetry_multiplicity
 _atom_site_fract_x
 _atom_site_fract_y
 _atom_site_fract_z
 _atom_site_occupancy
  Se  Se0  1  0.12500000  0.00000000  0.25000000  1
  Se  Se1  1  0.00000000  0.00000000  0.00000000  1
  P  P2  1  0.37500000  0.00000000  0.25000000  1
  P  P3  1  0.25000000  0.25000000  0.25000000  1
  P  P4  1  0.00000000  0.25000000  0.12500000  1
  Mo  Mo5  1  0.71850236  0.17261707  0.83443051  1
  Li  Li6  1  0.79609715  0.05456154  0.68955338  1
  Li  Li7  1  0.56460999  0.02922978  0.09707465  1
  Y  Y8  1  0.36963191  0.75093325  0.01237682  1
  Y  Y9  1  0.85633930  0.81566750  0.42855045  1
