# generated using pymatgen
data_LiF
_symmetry_space_group_name_H-M   'P 1'
_cell_length_a   11.63966528
_cell_length_b   11.63966528
_cell_length_c   6.28092963
_cell_angle_alpha   90.00000000
_cell_angle_beta   90.00000000
_cell_angle_gamma   120.00000000
_symmetry_Int_Tables_number   1
_chemical_formula_structural   LiF
_chemical_formula_sum   'Li22 F22'
_cell_volume   736.94579103
_cell_formula_units_Z   22
loop_
 _symmetry_equiv_pos_site_id
 _symmetry_equiv_pos_as_xyz
  1  'x, y, z'
loop_
 _atom_site_type_symbol
 _atom_site_label
 _atom_site_symmetry_multiplicity
 _atom_site_fract_x
 _atom_site_fract_y
 _atom_site_fract_z
 _atom_site_occupancy
  F  F0  1  0.28870966  0.28261804  0.50720109  1
  F  F1  1  0.71738196  0.00609162  0.50720109  1
  F  F2  1  0.99390838  0.71129034  0.50720109  1
  F  F3  1  0.71738196  0.71129034  0.49279891  1
  F  F4  1  0.99390838  0.28261804  0.49279891  1
  F  F5  1  0.28870966  0.00609162  0.49279891  1
  F  F6  1  0.58712948  0.51185375  0.11125657  1
  F  F7  1  0.48814625  0.07527573  0.11125657  1
  F  F8  1  0.92472427  0.41287052  0.11125657  1
  F  F9  1  0.48814625  0.41287052  0.88874343  1
  F  F10  1  0.92472427  0.51185375  0.88874343  1
  F  F11  1  0.58712948  0.07527573  0.88874343  1
  F  F12  1  0.45612005  0.54387995  0.50000000  1
  F  F13  1  0.45612005  0.91224010  0.50000000  1
  F  F14  1  0.08775990  0.54387995  0.50000000  1
  F  F15  1  0.00000000  0.00000000  0.00000000  1
  F  F16  1  0.16492947  0.58012334  0.35075978  1
  F  F17  1  0.41987666  0.58480613  0.35075978  1
  F  F18  1  0.41519387  0.83507053  0.35075978  1
  F  F19  1  0.41987666  0.83507053  0.64924022  1
  F  F20  1  0.41519387  0.58012334  0.64924022  1
  F  F21  1  0.16492947  0.58480613  0.64924022  1
  Li  Li22  1  0.66666667  0.33333333  0.50000000  1
  Li  Li23  1  0.66768854  0.07471127  0.62513966  1
  Li  Li24  1  -0.07471127  0.59297727  0.62513966  1
  Li  Li25  1  -0.59297727  -0.66768854  0.62513966  1
  Li  Li26  1  -0.07471127  -0.66768854  -0.62513966  1
  Li  Li27  1  -0.59297727  0.07471127  -0.62513966  1
  Li  Li28  1  0.66768854  0.59297727  -0.62513966  1
  Li  Li29  1  0.24901975  0.75098025  0.00000000  1
  Li  Li30  1  0.24901975  0.49803951  -0.00000000  1
  Li  Li31  1  0.50196049  0.75098025  -0.00000000  1
  Li  Li32  1  0.28115104  0.28335734  0.93202049  1
  Li  Li33  1  0.71664266  0.99779370  0.93202049  1
  Li  Li34  1  0.00220630  0.71884896  0.93202049  1
  Li  Li35  1  0.71664266  0.71884896  0.06797951  1
  Li  Li36  1  0.00220630  0.28335734  0.06797951  1
  Li  Li37  1  0.28115104  0.99779370  0.06797951  1
  Li  Li38  1  0.00000000  0.00000000  0.67471617  1
  Li  Li39  1  0.00000000  0.00000000  0.32528383  1
  Li  Li40  1  0.66666667  0.33333333  -0.00000000  1
  Li  Li41  1  0.75790216  0.24209784  0.50000000  1
  Li  Li42  1  0.75790216  0.51580432  0.50000000  1
  Li  Li43  1  0.48419568  0.24209784  0.50000000  1
