# generated using pymatgen
data_LiF
_symmetry_space_group_name_H-M   'P 1'
_cell_length_a   5.97855023
_cell_length_b   5.62373152
_cell_length_c   2.65473549
_cell_angle_alpha   90.00000000
_cell_angle_beta   90.00000000
_cell_angle_gamma   90.00000000
_symmetry_Int_Tables_number   1
_chemical_formula_structural   LiF
_chemical_formula_sum   'Li4 F4'
_cell_volume   89.25688309
_cell_formula_units_Z   4
loop_
 _symmetry_equiv_pos_site_id
 _symmetry_equiv_pos_as_xyz
  1  'x, y, z'
loop_
 _atom_site_type_symbol
 _atom_site_label
 _atom_site_symmetry_multiplicity
 _atom_site_fract_x
 _atom_site_fract_y
 _atom_site_fract_z
 _atom_site_occupancy
  F  F0  1  0.77001131  0.82513367  0.50000000  1
  F  F1  1  -0.77001131  -0.82513367  0.50000000  1
  F  F2  1  -0.27001131  1.32513367  0.50000000  1
  F  F3  1  1.27001131  -0.32513367  0.50000000  1
  Li  Li4  1  0.74038282  0.34582378  0.00000000  1
  Li  Li5  1  0.25961718  0.65417622  -0.00000000  1
  Li  Li6  1  0.75961718  0.84582378  0.00000000  1
  Li  Li7  1  0.24038282  0.15417622  -0.00000000  1
