# generated using pymatgen
data_LiF
_symmetry_space_group_name_H-M   'P 1'
_cell_length_a   5.04362315
_cell_length_b   19.03763274
_cell_length_c   8.65747243
_cell_angle_alpha   90.00000000
_cell_angle_beta   90.00000000
_cell_angle_gamma   90.00000000
_symmetry_Int_Tables_number   1
_chemical_formula_structural   LiF
_chemical_formula_sum   'Li24 F24'
_cell_volume   831.27877314
_cell_formula_units_Z   24
loop_
 _symmetry_equiv_pos_site_id
 _symmetry_equiv_pos_as_xyz
  1  'x, y, z'
loop_
 _atom_site_type_symbol
 _atom_site_label
 _atom_site_symmetry_multiplicity
 _atom_site_fract_x
 _atom_site_fract_y
 _atom_site_fract_z
 _atom_site_occupancy
  F  F0  1  0.00000000  0.00000000  0.00000000  1
  F  F1  1  0.50000000  0.00000000  0.50000000  1
  F  F2  1  0.00000000  0.50000000  0.00000000  1
  F  F3  1  0.50000000  0.50000000  0.50000000  1
  F  F4  1  0.10189271  0.17432386  0.65789625  1
  F  F5  1  0.39810729  0.82567614  0.15789625  1
  F  F6  1  0.89810729  0.67432386  0.34210375  1
  F  F7  1  0.60189271  0.32567614  0.84210375  1
  F  F8  1  0.89810729  0.82567614  0.34210375  1
  F  F9  1  0.60189271  0.17432386  0.84210375  1
  F  F10  1  0.10189271  0.32567614  0.65789625  1
  F  F11  1  0.39810729  0.67432386  0.15789625  1
  F  F12  1  0.94980989  0.87812791  0.37103105  1
  F  F13  1  0.55019011  0.12187209  0.87103105  1
  F  F14  1  0.05019011  0.37812791  0.62896895  1
  F  F15  1  0.44980989  0.62187209  0.12896895  1
  F  F16  1  0.05019011  0.12187209  0.62896895  1
  F  F17  1  0.44980989  0.87812791  0.12896895  1
  F  F18  1  0.94980989  0.62187209  0.37103105  1
  F  F19  1  0.55019011  0.37812791  0.87103105  1
  F  F20  1  0.60533592  0.25000000  0.46794770  1
  F  F21  1  0.89466408  0.75000000  0.96794770  1
  F  F22  1  0.39466408  0.75000000  0.53205230  1
  F  F23  1  0.10533592  0.25000000  0.03205230  1
  Li  Li24  1  0.00000000  0.00000000  0.50000000  1
  Li  Li25  1  0.50000000  0.00000000  0.00000000  1
  Li  Li26  1  0.00000000  0.50000000  0.50000000  1
  Li  Li27  1  0.50000000  0.50000000  0.00000000  1
  Li  Li28  1  0.21545845  0.01854941  0.22787298  1
  Li  Li29  1  0.28454155  -0.01854941  0.72787298  1
  Li  Li30  1  -0.21545845  0.51854941  -0.22787298  1
  Li  Li31  1  0.71545845  0.48145059  0.27212702  1
  Li  Li32  1  -0.21545845  -0.01854941  -0.22787298  1
  Li  Li33  1  0.71545845  0.01854941  0.27212702  1
  Li  Li34  1  0.21545845  0.48145059  0.22787298  1
  Li  Li35  1  0.28454155  0.51854941  0.72787298  1
  Li  Li36  1  0.65372470  0.52494033  0.12418211  1
  Li  Li37  1  0.84627530  0.47505967  0.62418211  1
  Li  Li38  1  0.34627530  0.02494033  0.87581789  1
  Li  Li39  1  0.15372470  0.97505967  0.37581789  1
  Li  Li40  1  0.34627530  0.47505967  0.87581789  1
  Li  Li41  1  0.15372470  0.52494033  0.37581789  1
  Li  Li42  1  0.65372470  0.97505967  0.12418211  1
  Li  Li43  1  0.84627530  0.02494033  0.62418211  1
  Li  Li44  1  0.23051048  0.25000000  0.21078344  1
  Li  Li45  1  0.26948952  0.75000000  0.71078344  1
  Li  Li46  1  0.76948952  0.75000000  0.78921656  1
  Li  Li47  1  0.73051048  0.25000000  0.28921656  1
