# generated using pymatgen
data_LiF
_symmetry_space_group_name_H-M   'P 1'
_cell_length_a   9.56479487
_cell_length_b   13.83121284
_cell_length_c   12.52091179
_cell_angle_alpha   90.00000000
_cell_angle_beta   90.00000000
_cell_angle_gamma   90.00000000
_symmetry_Int_Tables_number   1
_chemical_formula_structural   LiF
_chemical_formula_sum   'Li62 F62'
_cell_volume   1656.42539705
_cell_formula_units_Z   62
loop_
 _symmetry_equiv_pos_site_id
 _symmetry_equiv_pos_as_xyz
  1  'x, y, z'
loop_
 _atom_site_type_symbol
 _atom_site_label
 _atom_site_symmetry_multiplicity
 _atom_site_fract_x
 _atom_site_fract_y
 _atom_site_fract_z
 _atom_site_occupancy
  F  F0  1  0.00000000  0.50000000  0.00000000  1
  F  F1  1  0.50000000  0.00000000  0.00000000  1
  F  F2  1  0.42334215  0.69090930  0.37210110  1
  F  F3  1  0.57665785  0.30909070  0.37210110  1
  F  F4  1  0.07665785  0.19090930  0.62789890  1
  F  F5  1  0.92334215  0.80909070  0.62789890  1
  F  F6  1  0.57665785  0.30909070  0.62789890  1
  F  F7  1  0.42334215  0.69090930  0.62789890  1
  F  F8  1  0.92334215  0.80909070  0.37210110  1
  F  F9  1  0.07665785  0.19090930  0.37210110  1
  F  F10  1  0.64110502  0.10297351  0.67732226  1
  F  F11  1  0.35889498  0.89702649  0.67732226  1
  F  F12  1  0.85889498  0.60297351  0.32267774  1
  F  F13  1  0.14110502  0.39702649  0.32267774  1
  F  F14  1  0.35889498  0.89702649  0.32267774  1
  F  F15  1  0.64110502  0.10297351  0.32267774  1
  F  F16  1  0.14110502  0.39702649  0.67732226  1
  F  F17  1  0.85889498  0.60297351  0.67732226  1
  F  F18  1  0.55341373  0.29662267  0.43375269  1
  F  F19  1  0.44658627  0.70337733  0.43375269  1
  F  F20  1  0.94658627  0.79662267  0.56624731  1
  F  F21  1  0.05341373  0.20337733  0.56624731  1
  F  F22  1  0.44658627  0.70337733  0.56624731  1
  F  F23  1  0.55341373  0.29662267  0.56624731  1
  F  F24  1  0.05341373  0.20337733  0.43375269  1
  F  F25  1  0.94658627  0.79662267  0.43375269  1
  F  F26  1  0.99839672  0.10935081  0.94629559  1
  F  F27  1  0.00160328  0.89064919  0.94629559  1
  F  F28  1  0.50160328  0.60935081  0.05370441  1
  F  F29  1  0.49839672  0.39064919  0.05370441  1
  F  F30  1  0.00160328  0.89064919  0.05370441  1
  F  F31  1  0.99839672  0.10935081  0.05370441  1
  F  F32  1  0.49839672  0.39064919  0.94629559  1
  F  F33  1  0.50160328  0.60935081  0.94629559  1
  F  F34  1  0.68699917  0.78885611  0.26310106  1
  F  F35  1  0.31300083  0.21114389  0.26310106  1
  F  F36  1  0.81300083  0.28885611  0.73689894  1
  F  F37  1  0.18699917  0.71114389  0.73689894  1
  F  F38  1  0.31300083  0.21114389  0.73689894  1
  F  F39  1  0.68699917  0.78885611  0.73689894  1
  F  F40  1  0.18699917  0.71114389  0.26310106  1
  F  F41  1  0.81300083  0.28885611  0.26310106  1
  F  F42  1  0.86657422  0.90806286  0.79411684  1
  F  F43  1  0.13342578  0.09193714  0.79411684  1
  F  F44  1  0.63342578  0.40806286  0.20588316  1
  F  F45  1  0.36657422  0.59193714  0.20588316  1
  F  F46  1  0.13342578  0.09193714  0.20588316  1
  F  F47  1  0.86657422  0.90806286  0.20588316  1
  F  F48  1  0.36657422  0.59193714  0.79411684  1
  F  F49  1  0.63342578  0.40806286  0.79411684  1
  F  F50  1  0.00000000  0.50000000  0.70552663  1
  F  F51  1  0.50000000  0.00000000  0.29447337  1
  F  F52  1  0.00000000  0.50000000  0.29447337  1
  F  F53  1  0.50000000  0.00000000  0.70552663  1
  F  F54  1  0.79879959  0.16137199  0.12185379  1
  F  F55  1  0.20120041  0.83862801  0.12185379  1
  F  F56  1  0.70120041  0.66137199  0.87814621  1
  F  F57  1  0.29879959  0.33862801  0.87814621  1
  F  F58  1  0.20120041  0.83862801  0.87814621  1
  F  F59  1  0.79879959  0.16137199  0.87814621  1
  F  F60  1  0.29879959  0.33862801  0.12185379  1
  F  F61  1  0.70120041  0.66137199  0.12185379  1
  Li  Li62  1  0.00000000  0.50000000  0.50000000  1
  Li  Li63  1  0.50000000  0.00000000  0.50000000  1
  Li  Li64  1  0.90885929  0.63722255  0.86997838  1
  Li  Li65  1  -0.90885929  -0.63722255  0.86997838  1
  Li  Li66  1  -0.40885929  1.13722255  -0.86997838  1
  Li  Li67  1  1.40885929  -0.13722255  -0.86997838  1
  Li  Li68  1  -0.90885929  -0.63722255  -0.86997838  1
  Li  Li69  1  0.90885929  0.63722255  -0.86997838  1
  Li  Li70  1  1.40885929  -0.13722255  0.86997838  1
  Li  Li71  1  -0.40885929  1.13722255  0.86997838  1
  Li  Li72  1  0.82618988  0.55883097  0.17614139  1
  Li  Li73  1  0.17381012  0.44116903  0.17614139  1
  Li  Li74  1  0.67381012  0.05883097  0.82385861  1
  Li  Li75  1  0.32618988  0.94116903  0.82385861  1
  Li  Li76  1  0.17381012  0.44116903  0.82385861  1
  Li  Li77  1  0.82618988  0.55883097  0.82385861  1
  Li  Li78  1  0.32618988  0.94116903  0.17614139  1
  Li  Li79  1  0.67381012  0.05883097  0.17614139  1
  Li  Li80  1  0.00000000  0.00000000  0.90937264  1
  Li  Li81  1  0.50000000  0.50000000  0.09062736  1
  Li  Li82  1  0.00000000  0.00000000  0.09062736  1
  Li  Li83  1  0.50000000  0.50000000  0.90937264  1
  Li  Li84  1  0.61743970  0.66528202  0.44203526  1
  Li  Li85  1  0.38256030  0.33471798  0.44203526  1
  Li  Li86  1  0.88256030  0.16528202  0.55796474  1
  Li  Li87  1  0.11743970  0.83471798  0.55796474  1
  Li  Li88  1  0.38256030  0.33471798  0.55796474  1
  Li  Li89  1  0.61743970  0.66528202  0.55796474  1
  Li  Li90  1  0.11743970  0.83471798  0.44203526  1
  Li  Li91  1  0.88256030  0.16528202  0.44203526  1
  Li  Li92  1  0.48073117  0.11112544  0.00000000  1
  Li  Li93  1  0.51926883  0.88887456  -0.00000000  1
  Li  Li94  1  0.01926883  0.61112544  -0.00000000  1
  Li  Li95  1  0.98073117  0.38887456  0.00000000  1
  Li  Li96  1  0.94734253  0.76062847  0.50000000  1
  Li  Li97  1  0.05265747  0.23937153  0.50000000  1
  Li  Li98  1  0.55265747  0.26062847  0.50000000  1
  Li  Li99  1  0.44734253  0.73937153  0.50000000  1
  Li  Li100  1  0.81617285  0.62750672  0.00000000  1
  Li  Li101  1  0.18382715  0.37249328  0.00000000  1
  Li  Li102  1  0.68382715  0.12750672  0.00000000  1
  Li  Li103  1  0.31617285  0.87249328  -0.00000000  1
  Li  Li104  1  0.00000000  0.00000000  0.27307712  1
  Li  Li105  1  0.50000000  0.50000000  0.72692288  1
  Li  Li106  1  0.00000000  0.00000000  0.72692288  1
  Li  Li107  1  0.50000000  0.50000000  0.27307712  1
  Li  Li108  1  0.71333056  0.99009967  0.75829104  1
  Li  Li109  1  0.28666944  0.00990033  0.75829104  1
  Li  Li110  1  0.78666944  0.49009967  0.24170896  1
  Li  Li111  1  0.21333056  0.50990033  0.24170896  1
  Li  Li112  1  0.28666944  0.00990033  0.24170896  1
  Li  Li113  1  0.71333056  0.99009967  0.24170896  1
  Li  Li114  1  0.21333056  0.50990033  0.75829104  1
  Li  Li115  1  0.78666944  0.49009967  0.75829104  1
  Li  Li116  1  0.92922316  0.23680744  0.00000000  1
  Li  Li117  1  0.07077684  0.76319256  0.00000000  1
  Li  Li118  1  0.57077684  0.73680744  0.00000000  1
  Li  Li119  1  0.42922316  0.26319256  0.00000000  1
  Li  Li120  1  0.21942124  0.58011591  0.00000000  1
  Li  Li121  1  0.78057876  0.41988409  0.00000000  1
  Li  Li122  1  0.28057876  0.08011591  -0.00000000  1
  Li  Li123  1  0.71942124  0.91988409  0.00000000  1
