# generated using pymatgen
data_LiF
_symmetry_space_group_name_H-M   'P 1'
_cell_length_a   9.59052154
_cell_length_b   9.59052154
_cell_length_c   9.75272730
_cell_angle_alpha   90.00000000
_cell_angle_beta   90.00000000
_cell_angle_gamma   90.00000000
_symmetry_Int_Tables_number   1
_chemical_formula_structural   LiF
_chemical_formula_sum   'Li28 F28'
_cell_volume   897.03735979
_cell_formula_units_Z   28
loop_
 _symmetry_equiv_pos_site_id
 _symmetry_equiv_pos_as_xyz
  1  'x, y, z'
loop_
 _atom_site_type_symbol
 _atom_site_label
 _atom_site_symmetry_multiplicity
 _atom_site_fract_x
 _atom_site_fract_y
 _atom_site_fract_z
 _atom_site_occupancy
  F  F0  1  0.18889534  0.43889534  0.87500000  1
  F  F1  1  0.31110466  0.56110466  0.37500000  1
  F  F2  1  -0.18889534  0.93889534  0.12500000  1
  F  F3  1  0.68889534  0.06110466  0.62500000  1
  F  F4  1  -0.18889534  0.56110466  0.12500000  1
  F  F5  1  0.68889534  0.43889534  0.62500000  1
  F  F6  1  0.18889534  0.06110466  0.87500000  1
  F  F7  1  0.31110466  0.93889534  0.37500000  1
  F  F8  1  0.68889534  0.93889534  1.37500000  1
  F  F9  1  0.81110466  1.06110466  0.87500000  1
  F  F10  1  0.31110466  1.43889534  0.62500000  1
  F  F11  1  1.18889534  0.56110466  1.12500000  1
  F  F12  1  0.31110466  1.06110466  0.62500000  1
  F  F13  1  1.18889534  0.93889534  1.12500000  1
  F  F14  1  0.68889534  0.56110466  1.37500000  1
  F  F15  1  0.81110466  1.43889534  0.87500000  1
  F  F16  1  0.00000000  0.00000000  0.50000000  1
  F  F17  1  0.50000000  0.00000000  0.00000000  1
  F  F18  1  0.25000000  0.75000000  0.75000000  1
  F  F19  1  0.25000000  0.25000000  0.25000000  1
  F  F20  1  0.50000000  0.50000000  0.00000000  1
  F  F21  1  0.00000000  0.50000000  0.50000000  1
  F  F22  1  0.75000000  0.25000000  0.25000000  1
  F  F23  1  0.75000000  0.75000000  0.75000000  1
  F  F24  1  0.00000000  0.75000000  0.12500000  1
  F  F25  1  0.50000000  0.75000000  0.37500000  1
  F  F26  1  0.50000000  0.25000000  0.62500000  1
  F  F27  1  0.00000000  0.25000000  0.87500000  1
  Li  Li28  1  0.00000000  0.89790245  0.86760504  1
  Li  Li29  1  0.50000000  0.10209755  0.36760504  1
  Li  Li30  1  0.35209755  0.75000000  0.11760504  1
  Li  Li31  1  0.14790245  0.25000000  0.61760504  1
  Li  Li32  1  0.50000000  0.89790245  0.63239496  1
  Li  Li33  1  0.00000000  0.10209755  0.13239496  1
  Li  Li34  1  0.14790245  0.75000000  0.38239496  1
  Li  Li35  1  0.35209755  0.25000000  0.88239496  1
  Li  Li36  1  0.50000000  0.39790245  0.36760504  1
  Li  Li37  1  0.00000000  0.60209755  0.86760504  1
  Li  Li38  1  0.85209755  0.25000000  0.61760504  1
  Li  Li39  1  0.64790245  0.75000000  0.11760504  1
  Li  Li40  1  0.00000000  0.39790245  0.13239496  1
  Li  Li41  1  0.50000000  0.60209755  0.63239496  1
  Li  Li42  1  0.64790245  0.25000000  0.88239496  1
  Li  Li43  1  0.85209755  0.75000000  0.38239496  1
  Li  Li44  1  0.00000000  0.25000000  0.59874167  1
  Li  Li45  1  0.00000000  0.75000000  0.84874167  1
  Li  Li46  1  0.50000000  0.25000000  0.90125833  1
  Li  Li47  1  0.50000000  0.75000000  0.65125833  1
  Li  Li48  1  0.50000000  0.75000000  0.09874167  1
  Li  Li49  1  0.50000000  0.25000000  0.34874167  1
  Li  Li50  1  0.00000000  0.75000000  0.40125833  1
  Li  Li51  1  0.00000000  0.25000000  0.15125833  1
  Li  Li52  1  0.00000000  0.25000000  0.37500000  1
  Li  Li53  1  0.00000000  0.75000000  0.62500000  1
  Li  Li54  1  0.50000000  0.75000000  0.87500000  1
  Li  Li55  1  0.50000000  0.25000000  0.12500000  1
