# generated using pymatgen
data_LiF
_symmetry_space_group_name_H-M   'P 1'
_cell_length_a   11.80750114
_cell_length_b   6.54089768
_cell_length_c   9.25665239
_cell_angle_alpha   90.00000000
_cell_angle_beta   90.00000000
_cell_angle_gamma   90.00000000
_symmetry_Int_Tables_number   1
_chemical_formula_structural   LiF
_chemical_formula_sum   'Li48 F48'
_cell_volume   714.90660050
_cell_formula_units_Z   48
loop_
 _symmetry_equiv_pos_site_id
 _symmetry_equiv_pos_as_xyz
  1  'x, y, z'
loop_
 _atom_site_type_symbol
 _atom_site_label
 _atom_site_symmetry_multiplicity
 _atom_site_fract_x
 _atom_site_fract_y
 _atom_site_fract_z
 _atom_site_occupancy
  F  F0  1  0.26555322  0.01149487  0.89491349  1
  F  F1  1  0.23444678  0.98850513  0.39491349  1
  F  F2  1  0.73444678  0.51149487  0.10508651  1
  F  F3  1  0.76555322  0.48850513  0.60508651  1
  F  F4  1  0.73444678  0.98850513  0.10508651  1
  F  F5  1  0.76555322  0.01149487  0.60508651  1
  F  F6  1  0.26555322  0.48850513  0.89491349  1
  F  F7  1  0.23444678  0.51149487  0.39491349  1
  F  F8  1  0.40714788  0.31619435  0.73811185  1
  F  F9  1  0.09285212  0.68380565  0.23811185  1
  F  F10  1  0.59285212  0.81619435  0.26188815  1
  F  F11  1  0.90714788  0.18380565  0.76188815  1
  F  F12  1  0.59285212  0.68380565  0.26188815  1
  F  F13  1  0.90714788  0.31619435  0.76188815  1
  F  F14  1  0.40714788  0.18380565  0.73811185  1
  F  F15  1  0.09285212  0.81619435  0.23811185  1
  F  F16  1  0.29496234  0.25000000  0.04032319  1
  F  F17  1  0.20503766  0.75000000  0.54032319  1
  F  F18  1  0.70503766  0.75000000  0.95967681  1
  F  F19  1  0.79496234  0.25000000  0.45967681  1
  F  F20  1  0.59961791  0.25000000  0.28424847  1
  F  F21  1  0.90038209  0.75000000  0.78424847  1
  F  F22  1  0.40038209  0.75000000  0.71575153  1
  F  F23  1  0.09961791  0.25000000  0.21575153  1
  F  F24  1  0.73015019  0.25000000  0.89430663  1
  F  F25  1  0.76984981  0.75000000  0.39430663  1
  F  F26  1  0.26984981  0.75000000  0.10569337  1
  F  F27  1  0.23015019  0.25000000  0.60569337  1
  F  F28  1  0.82164848  0.87884043  0.94600647  1
  F  F29  1  0.67835152  0.12115957  0.44600647  1
  F  F30  1  0.17835152  0.37884043  0.05399353  1
  F  F31  1  0.32164848  0.62115957  0.55399353  1
  F  F32  1  0.17835152  0.12115957  0.05399353  1
  F  F33  1  0.32164848  0.87884043  0.55399353  1
  F  F34  1  0.82164848  0.62115957  0.94600647  1
  F  F35  1  0.67835152  0.37884043  0.44600647  1
  F  F36  1  0.43663506  0.05044937  0.10653806  1
  F  F37  1  0.06336494  0.94955063  0.60653806  1
  F  F38  1  0.56336494  0.55044937  0.89346194  1
  F  F39  1  0.93663506  0.44955063  0.39346194  1
  F  F40  1  0.56336494  0.94955063  0.89346194  1
  F  F41  1  0.93663506  0.05044937  0.39346194  1
  F  F42  1  0.43663506  0.44955063  0.10653806  1
  F  F43  1  0.06336494  0.55044937  0.60653806  1
  F  F44  1  0.00000000  0.00000000  0.00000000  1
  F  F45  1  0.50000000  0.00000000  0.50000000  1
  F  F46  1  0.00000000  0.50000000  0.00000000  1
  F  F47  1  0.50000000  0.50000000  0.50000000  1
  Li  Li48  1  0.94858599  0.86066479  0.97529827  1
  Li  Li49  1  -0.44858599  -0.86066479  1.47529827  1
  Li  Li50  1  -0.94858599  1.36066479  -0.97529827  1
  Li  Li51  1  1.44858599  -0.36066479  -0.47529827  1
  Li  Li52  1  -0.94858599  -0.86066479  -0.97529827  1
  Li  Li53  1  1.44858599  0.86066479  -0.47529827  1
  Li  Li54  1  0.94858599  -0.36066479  0.97529827  1
  Li  Li55  1  -0.44858599  1.36066479  1.47529827  1
  Li  Li56  1  0.19622915  0.04671902  0.95942317  1
  Li  Li57  1  0.30377085  0.95328098  0.45942317  1
  Li  Li58  1  0.80377085  0.54671902  0.04057683  1
  Li  Li59  1  0.69622915  0.45328098  0.54057683  1
  Li  Li60  1  0.80377085  0.95328098  0.04057683  1
  Li  Li61  1  0.69622915  0.04671902  0.54057683  1
  Li  Li62  1  0.19622915  0.45328098  0.95942317  1
  Li  Li63  1  0.30377085  0.54671902  0.45942317  1
  Li  Li64  1  0.24988554  0.25000000  0.86380426  1
  Li  Li65  1  0.25011446  0.75000000  0.36380426  1
  Li  Li66  1  0.75011446  0.75000000  0.13619574  1
  Li  Li67  1  0.74988554  0.25000000  0.63619574  1
  Li  Li68  1  0.94381613  0.63440840  0.36459189  1
  Li  Li69  1  0.55618387  0.36559160  0.86459189  1
  Li  Li70  1  0.05618387  0.13440840  0.63540811  1
  Li  Li71  1  0.44381613  0.86559160  0.13540811  1
  Li  Li72  1  0.05618387  0.36559160  0.63540811  1
  Li  Li73  1  0.44381613  0.63440840  0.13540811  1
  Li  Li74  1  0.94381613  0.86559160  0.36459189  1
  Li  Li75  1  0.55618387  0.13440840  0.86459189  1
  Li  Li76  1  0.00000000  0.00000000  0.50000000  1
  Li  Li77  1  0.50000000  0.00000000  0.00000000  1
  Li  Li78  1  0.00000000  0.50000000  0.50000000  1
  Li  Li79  1  0.50000000  0.50000000  0.00000000  1
  Li  Li80  1  0.67126825  0.58414929  0.69229763  1
  Li  Li81  1  0.82873175  0.41585071  0.19229763  1
  Li  Li82  1  0.32873175  0.08414929  0.30770237  1
  Li  Li83  1  0.17126825  0.91585071  0.80770237  1
  Li  Li84  1  0.32873175  0.41585071  0.30770237  1
  Li  Li85  1  0.17126825  0.58414929  0.80770237  1
  Li  Li86  1  0.67126825  0.91585071  0.69229763  1
  Li  Li87  1  0.82873175  0.08414929  0.19229763  1
  Li  Li88  1  0.73871572  0.63467418  0.81747239  1
  Li  Li89  1  0.76128428  0.36532582  0.31747239  1
  Li  Li90  1  0.26128428  0.13467418  0.18252761  1
  Li  Li91  1  0.23871572  0.86532582  0.68252761  1
  Li  Li92  1  0.26128428  0.36532582  0.18252761  1
  Li  Li93  1  0.23871572  0.63467418  0.68252761  1
  Li  Li94  1  0.73871572  0.86532582  0.81747239  1
  Li  Li95  1  0.76128428  0.13467418  0.31747239  1
