# generated using pymatgen
data_LiF
_symmetry_space_group_name_H-M   'P 1'
_cell_length_a   12.79013274
_cell_length_b   12.79013274
_cell_length_c   12.79013274
_cell_angle_alpha   90.00000000
_cell_angle_beta   90.00000000
_cell_angle_gamma   90.00000000
_symmetry_Int_Tables_number   1
_chemical_formula_structural   LiF
_chemical_formula_sum   'Li64 F64'
_cell_volume   2092.30578215
_cell_formula_units_Z   64
loop_
 _symmetry_equiv_pos_site_id
 _symmetry_equiv_pos_as_xyz
  1  'x, y, z'
loop_
 _atom_site_type_symbol
 _atom_site_label
 _atom_site_symmetry_multiplicity
 _atom_site_fract_x
 _atom_site_fract_y
 _atom_site_fract_z
 _atom_site_occupancy
  F  F0  1  0.12500000  0.22345878  0.02654122  1
  F  F1  1  0.37500000  0.77654122  0.52654122  1
  F  F2  1  0.87500000  0.72345878  0.47345878  1
  F  F3  1  0.62500000  0.27654122  0.97345878  1
  F  F4  1  0.02654122  0.12500000  0.22345878  1
  F  F5  1  0.52654122  0.37500000  0.77654122  1
  F  F6  1  0.47345878  0.87500000  0.72345878  1
  F  F7  1  0.97345878  0.62500000  0.27654122  1
  F  F8  1  0.22345878  0.02654122  0.12500000  1
  F  F9  1  0.77654122  0.52654122  0.37500000  1
  F  F10  1  0.72345878  0.47345878  0.87500000  1
  F  F11  1  0.27654122  0.97345878  0.62500000  1
  F  F12  1  0.62500000  0.72345878  0.52654122  1
  F  F13  1  0.87500000  0.27654122  0.02654122  1
  F  F14  1  0.37500000  0.22345878  0.97345878  1
  F  F15  1  0.12500000  0.77654122  0.47345878  1
  F  F16  1  0.52654122  0.62500000  0.72345878  1
  F  F17  1  0.02654122  0.87500000  0.27654122  1
  F  F18  1  0.97345878  0.37500000  0.22345878  1
  F  F19  1  0.47345878  0.12500000  0.77654122  1
  F  F20  1  0.72345878  0.52654122  0.62500000  1
  F  F21  1  0.27654122  0.02654122  0.87500000  1
  F  F22  1  0.22345878  0.97345878  0.37500000  1
  F  F23  1  0.77654122  0.47345878  0.12500000  1
  F  F24  1  0.12500000  0.12500000  0.12500000  1
  F  F25  1  0.37500000  0.87500000  0.62500000  1
  F  F26  1  0.87500000  0.62500000  0.37500000  1
  F  F27  1  0.62500000  0.37500000  0.87500000  1
  F  F28  1  0.62500000  0.62500000  0.62500000  1
  F  F29  1  0.87500000  0.37500000  0.12500000  1
  F  F30  1  0.37500000  0.12500000  0.87500000  1
  F  F31  1  0.12500000  0.87500000  0.37500000  1
  F  F32  1  0.12500000  0.31208776  0.56208776  1
  F  F33  1  0.37500000  0.68791224  0.06208776  1
  F  F34  1  0.87500000  0.81208776  0.93791224  1
  F  F35  1  0.62500000  0.18791224  0.43791224  1
  F  F36  1  0.56208776  0.12500000  0.31208776  1
  F  F37  1  0.06208776  0.37500000  0.68791224  1
  F  F38  1  0.93791224  0.87500000  0.81208776  1
  F  F39  1  0.43791224  0.62500000  0.18791224  1
  F  F40  1  0.31208776  0.56208776  0.12500000  1
  F  F41  1  0.68791224  0.06208776  0.37500000  1
  F  F42  1  0.81208776  0.93791224  0.87500000  1
  F  F43  1  0.18791224  0.43791224  0.62500000  1
  F  F44  1  0.62500000  0.81208776  0.06208776  1
  F  F45  1  0.87500000  0.18791224  0.56208776  1
  F  F46  1  0.37500000  0.31208776  0.43791224  1
  F  F47  1  0.12500000  0.68791224  0.93791224  1
  F  F48  1  0.06208776  0.62500000  0.81208776  1
  F  F49  1  0.56208776  0.87500000  0.18791224  1
  F  F50  1  0.43791224  0.37500000  0.31208776  1
  F  F51  1  0.93791224  0.12500000  0.68791224  1
  F  F52  1  0.81208776  0.06208776  0.62500000  1
  F  F53  1  0.18791224  0.56208776  0.87500000  1
  F  F54  1  0.31208776  0.43791224  0.37500000  1
  F  F55  1  0.68791224  0.93791224  0.12500000  1
  F  F56  1  0.87500000  0.87500000  0.87500000  1
  F  F57  1  0.62500000  0.12500000  0.37500000  1
  F  F58  1  0.12500000  0.37500000  0.62500000  1
  F  F59  1  0.37500000  0.62500000  0.12500000  1
  F  F60  1  0.37500000  0.37500000  0.37500000  1
  F  F61  1  0.12500000  0.62500000  0.87500000  1
  F  F62  1  0.62500000  0.87500000  0.12500000  1
  F  F63  1  0.87500000  0.12500000  0.62500000  1
  Li  Li64  1  0.27662604  0.27662604  0.27662604  1
  Li  Li65  1  0.22337396  0.72337396  0.77662604  1
  Li  Li66  1  0.72337396  0.77662604  0.22337396  1
  Li  Li67  1  0.77662604  0.22337396  0.72337396  1
  Li  Li68  1  0.02662604  0.52662604  0.97337396  1
  Li  Li69  1  0.47337396  0.47337396  0.47337396  1
  Li  Li70  1  0.52662604  0.97337396  0.02662604  1
  Li  Li71  1  0.97337396  0.02662604  0.52662604  1
  Li  Li72  1  0.77662604  0.77662604  0.77662604  1
  Li  Li73  1  0.72337396  0.22337396  0.27662604  1
  Li  Li74  1  0.22337396  0.27662604  0.72337396  1
  Li  Li75  1  0.27662604  0.72337396  0.22337396  1
  Li  Li76  1  0.52662604  0.02662604  0.47337396  1
  Li  Li77  1  0.97337396  0.97337396  0.97337396  1
  Li  Li78  1  0.02662604  0.47337396  0.52662604  1
  Li  Li79  1  0.47337396  0.52662604  0.02662604  1
  Li  Li80  1  0.30920923  0.31828827  0.06777717  1
  Li  Li81  1  0.19079077  -0.31828827  0.56777717  1
  Li  Li82  1  -0.30920923  0.81828827  0.43222283  1
  Li  Li83  1  0.80920923  0.18171173  -0.06777717  1
  Li  Li84  1  0.06777717  0.30920923  0.31828827  1
  Li  Li85  1  0.56777717  0.19079077  -0.31828827  1
  Li  Li86  1  0.43222283  -0.30920923  0.81828827  1
  Li  Li87  1  -0.06777717  0.80920923  0.18171173  1
  Li  Li88  1  0.31828827  0.06777717  0.30920923  1
  Li  Li89  1  -0.31828827  0.56777717  0.19079077  1
  Li  Li90  1  0.81828827  0.43222283  -0.30920923  1
  Li  Li91  1  0.18171173  -0.06777717  0.80920923  1
  Li  Li92  1  1.06828827  0.55920923  0.18222283  1
  Li  Li93  1  0.43171173  0.44079077  0.68222283  1
  Li  Li94  1  0.56828827  -0.05920923  0.81777717  1
  Li  Li95  1  -0.06828827  1.05920923  0.31777717  1
  Li  Li96  1  1.05920923  0.31777717  -0.06828827  1
  Li  Li97  1  -0.05920923  0.81777717  0.56828827  1
  Li  Li98  1  0.44079077  0.68222283  0.43171173  1
  Li  Li99  1  0.55920923  0.18222283  1.06828827  1
  Li  Li100  1  0.81777717  0.56828827  -0.05920923  1
  Li  Li101  1  0.31777717  -0.06828827  1.05920923  1
  Li  Li102  1  0.18222283  1.06828827  0.55920923  1
  Li  Li103  1  0.68222283  0.43171173  0.44079077  1
  Li  Li104  1  0.80920923  0.81828827  0.56777717  1
  Li  Li105  1  0.69079077  0.18171173  1.06777717  1
  Li  Li106  1  0.19079077  1.31828827  0.93222283  1
  Li  Li107  1  1.30920923  0.68171173  0.43222283  1
  Li  Li108  1  0.56777717  0.80920923  0.81828827  1
  Li  Li109  1  1.06777717  0.69079077  0.18171173  1
  Li  Li110  1  0.93222283  0.19079077  1.31828827  1
  Li  Li111  1  0.43222283  1.30920923  0.68171173  1
  Li  Li112  1  0.81828827  0.56777717  0.80920923  1
  Li  Li113  1  0.18171173  1.06777717  0.69079077  1
  Li  Li114  1  1.31828827  0.93222283  0.19079077  1
  Li  Li115  1  0.68171173  0.43222283  1.30920923  1
  Li  Li116  1  1.56828827  1.05920923  0.68222283  1
  Li  Li117  1  0.93171173  0.94079077  1.18222283  1
  Li  Li118  1  1.06828827  0.44079077  1.31777717  1
  Li  Li119  1  0.43171173  1.55920923  0.81777717  1
  Li  Li120  1  1.55920923  0.81777717  0.43171173  1
  Li  Li121  1  0.44079077  1.31777717  1.06828827  1
  Li  Li122  1  0.94079077  1.18222283  0.93171173  1
  Li  Li123  1  1.05920923  0.68222283  1.56828827  1
  Li  Li124  1  1.31777717  1.06828827  0.44079077  1
  Li  Li125  1  0.81777717  0.43171173  1.55920923  1
  Li  Li126  1  0.68222283  1.56828827  1.05920923  1
  Li  Li127  1  1.18222283  0.93171173  0.94079077  1
