# generated using pymatgen
data_LiF
_symmetry_space_group_name_H-M   'P 1'
_cell_length_a   11.82926942
_cell_length_b   11.68809964
_cell_length_c   8.41043796
_cell_angle_alpha   90.00000000
_cell_angle_beta   90.00000000
_cell_angle_gamma   90.00000000
_symmetry_Int_Tables_number   1
_chemical_formula_structural   LiF
_chemical_formula_sum   'Li36 F36'
_cell_volume   1162.84127918
_cell_formula_units_Z   36
loop_
 _symmetry_equiv_pos_site_id
 _symmetry_equiv_pos_as_xyz
  1  'x, y, z'
loop_
 _atom_site_type_symbol
 _atom_site_label
 _atom_site_symmetry_multiplicity
 _atom_site_fract_x
 _atom_site_fract_y
 _atom_site_fract_z
 _atom_site_occupancy
  F  F0  1  0.85803391  0.93010513  0.30135311  1
  F  F1  1  0.64196609  0.06989487  0.80135311  1
  F  F2  1  0.14196609  0.43010513  0.69864689  1
  F  F3  1  0.35803391  0.56989487  0.19864689  1
  F  F4  1  0.14196609  0.06989487  0.69864689  1
  F  F5  1  0.35803391  0.93010513  0.19864689  1
  F  F6  1  0.85803391  0.56989487  0.30135311  1
  F  F7  1  0.64196609  0.43010513  0.80135311  1
  F  F8  1  0.13217939  0.02129051  0.81525283  1
  F  F9  1  0.36782061  0.97870949  0.31525283  1
  F  F10  1  0.86782061  0.52129051  0.18474717  1
  F  F11  1  0.63217939  0.47870949  0.68474717  1
  F  F12  1  0.86782061  0.97870949  0.18474717  1
  F  F13  1  0.63217939  0.02129051  0.68474717  1
  F  F14  1  0.13217939  0.47870949  0.81525283  1
  F  F15  1  0.36782061  0.52129051  0.31525283  1
  F  F16  1  0.46463348  0.63855783  0.80128206  1
  F  F17  1  0.03536652  0.36144217  0.30128206  1
  F  F18  1  0.53536652  0.13855783  0.19871794  1
  F  F19  1  0.96463348  0.86144217  0.69871794  1
  F  F20  1  0.53536652  0.36144217  0.19871794  1
  F  F21  1  0.96463348  0.63855783  0.69871794  1
  F  F22  1  0.46463348  0.86144217  0.80128206  1
  F  F23  1  0.03536652  0.13855783  0.30128206  1
  F  F24  1  0.96237093  0.25000000  0.95057522  1
  F  F25  1  0.53762907  0.75000000  0.45057522  1
  F  F26  1  0.03762907  0.75000000  0.04942478  1
  F  F27  1  0.46237093  0.25000000  0.54942478  1
  F  F28  1  0.22416936  0.55231340  0.62219749  1
  F  F29  1  0.27583064  0.44768660  0.12219749  1
  F  F30  1  0.77583064  0.05231340  0.37780251  1
  F  F31  1  0.72416936  0.94768660  0.87780251  1
  F  F32  1  0.77583064  0.44768660  0.37780251  1
  F  F33  1  0.72416936  0.55231340  0.87780251  1
  F  F34  1  0.22416936  0.94768660  0.62219749  1
  F  F35  1  0.27583064  0.05231340  0.12219749  1
  Li  Li36  1  0.88308381  0.59287186  0.87804100  1
  Li  Li37  1  -0.38308381  -0.59287186  1.37804100  1
  Li  Li38  1  -0.88308381  1.09287186  -0.87804100  1
  Li  Li39  1  1.38308381  -0.09287186  -0.37804100  1
  Li  Li40  1  -0.88308381  -0.59287186  -0.87804100  1
  Li  Li41  1  1.38308381  0.59287186  -0.37804100  1
  Li  Li42  1  0.88308381  -0.09287186  0.87804100  1
  Li  Li43  1  -0.38308381  1.09287186  1.37804100  1
  Li  Li44  1  0.00000000  0.00000000  0.00000000  1
  Li  Li45  1  0.50000000  0.00000000  0.50000000  1
  Li  Li46  1  0.00000000  0.50000000  -0.00000000  1
  Li  Li47  1  0.50000000  0.50000000  0.50000000  1
  Li  Li48  1  0.00000000  0.00000000  0.50000000  1
  Li  Li49  1  0.50000000  0.00000000  0.00000000  1
  Li  Li50  1  0.00000000  0.50000000  0.50000000  1
  Li  Li51  1  0.50000000  0.50000000  -0.00000000  1
  Li  Li52  1  0.69993313  0.95714643  0.76239234  1
  Li  Li53  1  0.80006687  0.04285357  0.26239234  1
  Li  Li54  1  0.30006687  0.45714643  0.23760766  1
  Li  Li55  1  0.19993313  0.54285357  0.73760766  1
  Li  Li56  1  0.30006687  0.04285357  0.23760766  1
  Li  Li57  1  0.19993313  0.95714643  0.73760766  1
  Li  Li58  1  0.69993313  0.54285357  0.76239234  1
  Li  Li59  1  0.80006687  0.45714643  0.26239234  1
  Li  Li60  1  0.64347695  0.68251298  0.34486809  1
  Li  Li61  1  0.85652305  0.31748702  0.84486809  1
  Li  Li62  1  0.35652305  0.18251298  0.65513191  1
  Li  Li63  1  0.14347695  0.81748702  0.15513191  1
  Li  Li64  1  0.35652305  0.31748702  0.65513191  1
  Li  Li65  1  0.14347695  0.68251298  0.15513191  1
  Li  Li66  1  0.64347695  0.81748702  0.34486809  1
  Li  Li67  1  0.85652305  0.18251298  0.84486809  1
  Li  Li68  1  0.74887544  0.25000000  0.80258043  1
  Li  Li69  1  0.75112456  0.75000000  0.30258043  1
  Li  Li70  1  0.25112456  0.75000000  0.19741957  1
  Li  Li71  1  0.24887544  0.25000000  0.69741957  1
