# generated using pymatgen
data_Li3Y2(As2P)2
_symmetry_space_group_name_H-M   'P 1'
_cell_length_a   5.28711541
_cell_length_b   5.28551705
_cell_length_c   6.95221973
_cell_angle_alpha   94.18112462
_cell_angle_beta   99.10562019
_cell_angle_gamma   106.79391585
_symmetry_Int_Tables_number   1
_chemical_formula_structural   Li3Y2(As2P)2
_chemical_formula_sum   'Li3 Y2 As4 P2'
_cell_volume   182.19881939
_cell_formula_units_Z   1
loop_
 _symmetry_equiv_pos_site_id
 _symmetry_equiv_pos_as_xyz
  1  'x, y, z'
loop_
 _atom_site_type_symbol
 _atom_site_label
 _atom_site_symmetry_multiplicity
 _atom_site_fract_x
 _atom_site_fract_y
 _atom_site_fract_z
 _atom_site_occupancy
  P  P0  1  0.00000000  0.00000000  0.00000000  1
  P  P1  1  0.50000000  0.50000000  0.50000000  1
  As  As2  1  0.50000000  0.50000000  0.00000000  1
  As  As3  1  0.50000000  0.00000000  0.50000000  1
  As  As4  1  0.00000000  0.50000000  0.50000000  1
  As  As5  1  0.59667141  0.26724174  0.92080936  1
  Li  Li6  1  0.83943887  0.05185254  0.77365673  1
  Li  Li7  1  0.66321314  0.47337570  0.14766920  1
  Li  Li8  1  0.82412042  0.43681714  0.45185425  1
  Y  Y9  1  0.01656437  0.14470635  0.99106008  1
  Y  Y10  1  0.33772635  0.70101347  0.83393251  1
