# generated using pymatgen
data_LiF
_symmetry_space_group_name_H-M   'P 1'
_cell_length_a   14.24791540
_cell_length_b   11.57953856
_cell_length_c   13.39794919
_cell_angle_alpha   90.00000000
_cell_angle_beta   90.00000000
_cell_angle_gamma   90.00000000
_symmetry_Int_Tables_number   1
_chemical_formula_structural   LiF
_chemical_formula_sum   'Li80 F80'
_cell_volume   2210.45107872
_cell_formula_units_Z   80
loop_
 _symmetry_equiv_pos_site_id
 _symmetry_equiv_pos_as_xyz
  1  'x, y, z'
loop_
 _atom_site_type_symbol
 _atom_site_label
 _atom_site_symmetry_multiplicity
 _atom_site_fract_x
 _atom_site_fract_y
 _atom_site_fract_z
 _atom_site_occupancy
  F  F0  1  0.18966631  0.41989591  0.67989027  1
  F  F1  1  0.31033369  0.58010409  0.17989027  1
  F  F2  1  0.81033369  0.91989591  0.32010973  1
  F  F3  1  0.68966631  0.08010409  0.82010973  1
  F  F4  1  0.81033369  0.58010409  0.32010973  1
  F  F5  1  0.68966631  0.41989591  0.82010973  1
  F  F6  1  0.18966631  0.08010409  0.67989027  1
  F  F7  1  0.31033369  0.91989591  0.17989027  1
  F  F8  1  0.01553295  0.61165311  0.79209865  1
  F  F9  1  0.48446705  0.38834689  0.29209865  1
  F  F10  1  0.98446705  0.11165311  0.20790135  1
  F  F11  1  0.51553295  0.88834689  0.70790135  1
  F  F12  1  0.98446705  0.38834689  0.20790135  1
  F  F13  1  0.51553295  0.61165311  0.70790135  1
  F  F14  1  0.01553295  0.88834689  0.79209865  1
  F  F15  1  0.48446705  0.11165311  0.29209865  1
  F  F16  1  0.35803226  0.25000000  0.74067975  1
  F  F17  1  0.14196774  0.75000000  0.24067975  1
  F  F18  1  0.64196774  0.75000000  0.25932025  1
  F  F19  1  0.85803226  0.25000000  0.75932025  1
  F  F20  1  0.44476663  0.32790355  0.34272905  1
  F  F21  1  0.05523337  0.67209645  0.84272905  1
  F  F22  1  0.55523337  0.82790355  0.65727095  1
  F  F23  1  0.94476663  0.17209645  0.15727095  1
  F  F24  1  0.55523337  0.67209645  0.65727095  1
  F  F25  1  0.94476663  0.32790355  0.15727095  1
  F  F26  1  0.44476663  0.17209645  0.34272905  1
  F  F27  1  0.05523337  0.82790355  0.84272905  1
  F  F28  1  0.48461946  0.56355478  0.11917379  1
  F  F29  1  0.01538054  0.43644522  0.61917379  1
  F  F30  1  0.51538054  0.06355478  0.88082621  1
  F  F31  1  0.98461946  0.93644522  0.38082621  1
  F  F32  1  0.51538054  0.43644522  0.88082621  1
  F  F33  1  0.98461946  0.56355478  0.38082621  1
  F  F34  1  0.48461946  0.93644522  0.11917379  1
  F  F35  1  0.01538054  0.06355478  0.61917379  1
  F  F36  1  0.65006786  0.25000000  0.07197758  1
  F  F37  1  0.84993214  0.75000000  0.57197758  1
  F  F38  1  0.34993214  0.75000000  0.92802242  1
  F  F39  1  0.15006786  0.25000000  0.42802242  1
  F  F40  1  0.06782699  0.49133882  0.91231725  1
  F  F41  1  0.43217301  0.50866118  0.41231725  1
  F  F42  1  0.93217301  0.99133882  0.08768275  1
  F  F43  1  0.56782699  0.00866118  0.58768275  1
  F  F44  1  0.93217301  0.50866118  0.08768275  1
  F  F45  1  0.56782699  0.49133882  0.58768275  1
  F  F46  1  0.06782699  0.00866118  0.91231725  1
  F  F47  1  0.43217301  0.99133882  0.41231725  1
  F  F48  1  0.04763600  0.48084905  0.08193709  1
  F  F49  1  0.45236400  0.51915095  0.58193709  1
  F  F50  1  0.95236400  0.98084905  0.91806291  1
  F  F51  1  0.54763600  0.01915095  0.41806291  1
  F  F52  1  0.95236400  0.51915095  0.91806291  1
  F  F53  1  0.54763600  0.48084905  0.41806291  1
  F  F54  1  0.04763600  0.01915095  0.08193709  1
  F  F55  1  0.45236400  0.98084905  0.58193709  1
  F  F56  1  0.38215402  0.03955687  0.62873114  1
  F  F57  1  0.11784598  0.96044313  0.12873114  1
  F  F58  1  0.61784598  0.53955687  0.37126886  1
  F  F59  1  0.88215402  0.46044313  0.87126886  1
  F  F60  1  0.61784598  0.96044313  0.37126886  1
  F  F61  1  0.88215402  0.03955687  0.87126886  1
  F  F62  1  0.38215402  0.46044313  0.62873114  1
  F  F63  1  0.11784598  0.53955687  0.12873114  1
  F  F64  1  0.24228121  0.71611061  0.08039009  1
  F  F65  1  0.25771879  0.28388939  0.58039009  1
  F  F66  1  0.75771879  0.21611061  0.91960991  1
  F  F67  1  0.74228121  0.78388939  0.41960991  1
  F  F68  1  0.75771879  0.28388939  0.91960991  1
  F  F69  1  0.74228121  0.71611061  0.41960991  1
  F  F70  1  0.24228121  0.78388939  0.08039009  1
  F  F71  1  0.25771879  0.21611061  0.58039009  1
  F  F72  1  0.46811128  0.34769052  0.87024765  1
  F  F73  1  0.03188872  0.65230948  0.37024765  1
  F  F74  1  0.53188872  0.84769052  0.12975235  1
  F  F75  1  0.96811128  0.15230948  0.62975235  1
  F  F76  1  0.53188872  0.65230948  0.12975235  1
  F  F77  1  0.96811128  0.34769052  0.62975235  1
  F  F78  1  0.46811128  0.15230948  0.87024765  1
  F  F79  1  0.03188872  0.84769052  0.37024765  1
  Li  Li80  1  0.18871056  0.35442842  0.49268630  1
  Li  Li81  1  0.31128944  -0.35442842  0.99268630  1
  Li  Li82  1  -0.18871056  0.85442842  -0.49268630  1
  Li  Li83  1  0.68871056  0.14557158  0.00731370  1
  Li  Li84  1  -0.18871056  -0.35442842  -0.49268630  1
  Li  Li85  1  0.68871056  0.35442842  0.00731370  1
  Li  Li86  1  0.18871056  0.14557158  0.49268630  1
  Li  Li87  1  0.31128944  0.85442842  0.99268630  1
  Li  Li88  1  0.03199728  0.35960776  0.68563418  1
  Li  Li89  1  0.46800272  0.64039224  0.18563418  1
  Li  Li90  1  0.96800272  0.85960776  0.31436582  1
  Li  Li91  1  0.53199728  0.14039224  0.81436582  1
  Li  Li92  1  0.96800272  0.64039224  0.31436582  1
  Li  Li93  1  0.53199728  0.35960776  0.81436582  1
  Li  Li94  1  0.03199728  0.14039224  0.68563418  1
  Li  Li95  1  0.46800272  0.85960776  0.18563418  1
  Li  Li96  1  0.00000000  0.00000000  0.00000000  1
  Li  Li97  1  0.50000000  0.00000000  0.50000000  1
  Li  Li98  1  0.00000000  0.50000000  -0.00000000  1
  Li  Li99  1  0.50000000  0.50000000  0.50000000  1
  Li  Li100  1  0.45806749  0.48026517  0.87539246  1
  Li  Li101  1  0.04193251  0.51973483  0.37539246  1
  Li  Li102  1  0.54193251  0.98026517  0.12460754  1
  Li  Li103  1  0.95806749  0.01973483  0.62460754  1
  Li  Li104  1  0.54193251  0.51973483  0.12460754  1
  Li  Li105  1  0.95806749  0.48026517  0.62460754  1
  Li  Li106  1  0.45806749  0.01973483  0.87539246  1
  Li  Li107  1  0.04193251  0.98026517  0.37539246  1
  Li  Li108  1  0.36571245  0.67693826  0.69766501  1
  Li  Li109  1  0.13428755  0.32306174  0.19766501  1
  Li  Li110  1  0.63428755  0.17693826  0.30233499  1
  Li  Li111  1  0.86571245  0.82306174  0.80233499  1
  Li  Li112  1  0.63428755  0.32306174  0.30233499  1
  Li  Li113  1  0.86571245  0.67693826  0.80233499  1
  Li  Li114  1  0.36571245  0.82306174  0.69766501  1
  Li  Li115  1  0.13428755  0.17693826  0.19766501  1
  Li  Li116  1  0.88972890  0.18324485  0.40918674  1
  Li  Li117  1  0.61027110  0.81675515  0.90918674  1
  Li  Li118  1  0.11027110  0.68324485  0.59081326  1
  Li  Li119  1  0.38972890  0.31675515  0.09081326  1
  Li  Li120  1  0.11027110  0.81675515  0.59081326  1
  Li  Li121  1  0.38972890  0.18324485  0.09081326  1
  Li  Li122  1  0.88972890  0.31675515  0.40918674  1
  Li  Li123  1  0.61027110  0.68324485  0.90918674  1
  Li  Li124  1  0.76433639  0.81585287  0.89801632  1
  Li  Li125  1  0.73566361  0.18414713  0.39801632  1
  Li  Li126  1  0.23566361  0.31585287  0.10198368  1
  Li  Li127  1  0.26433639  0.68414713  0.60198368  1
  Li  Li128  1  0.23566361  0.18414713  0.10198368  1
  Li  Li129  1  0.26433639  0.81585287  0.60198368  1
  Li  Li130  1  0.76433639  0.68414713  0.89801632  1
  Li  Li131  1  0.73566361  0.31585287  0.39801632  1
  Li  Li132  1  0.00000000  0.00000000  0.50000000  1
  Li  Li133  1  0.50000000  0.00000000  0.00000000  1
  Li  Li134  1  0.00000000  0.50000000  0.50000000  1
  Li  Li135  1  0.50000000  0.50000000  0.00000000  1
  Li  Li136  1  0.95728524  0.86070208  0.69793882  1
  Li  Li137  1  0.54271476  0.13929792  0.19793882  1
  Li  Li138  1  0.04271476  0.36070208  0.30206118  1
  Li  Li139  1  0.45728524  0.63929792  0.80206118  1
  Li  Li140  1  0.04271476  0.13929792  0.30206118  1
  Li  Li141  1  0.45728524  0.86070208  0.80206118  1
  Li  Li142  1  0.95728524  0.63929792  0.69793882  1
  Li  Li143  1  0.54271476  0.36070208  0.19793882  1
  Li  Li144  1  0.31495152  0.25000000  0.10130925  1
  Li  Li145  1  0.18504848  0.75000000  0.60130925  1
  Li  Li146  1  0.68504848  0.75000000  0.89869075  1
  Li  Li147  1  0.81495152  0.25000000  0.39869075  1
  Li  Li148  1  0.32961612  0.48851344  0.92383424  1
  Li  Li149  1  0.17038388  0.51148656  0.42383424  1
  Li  Li150  1  0.67038388  0.98851344  0.07616576  1
  Li  Li151  1  0.82961612  0.01148656  0.57616576  1
  Li  Li152  1  0.67038388  0.51148656  0.07616576  1
  Li  Li153  1  0.82961612  0.48851344  0.57616576  1
  Li  Li154  1  0.32961612  0.01148656  0.92383424  1
  Li  Li155  1  0.17038388  0.98851344  0.42383424  1
  Li  Li156  1  0.11247753  0.25000000  0.06958195  1
  Li  Li157  1  0.38752247  0.75000000  0.56958195  1
  Li  Li158  1  0.88752247  0.75000000  0.93041805  1
  Li  Li159  1  0.61247753  0.25000000  0.43041805  1
