# generated using pymatgen
data_LiF
_symmetry_space_group_name_H-M   'P 1'
_cell_length_a   4.92417606
_cell_length_b   4.89127279
_cell_length_c   7.88136573
_cell_angle_alpha   90.00000000
_cell_angle_beta   90.00000000
_cell_angle_gamma   90.00000000
_symmetry_Int_Tables_number   1
_chemical_formula_structural   LiF
_chemical_formula_sum   'Li6 F6'
_cell_volume   189.82654286
_cell_formula_units_Z   6
loop_
 _symmetry_equiv_pos_site_id
 _symmetry_equiv_pos_as_xyz
  1  'x, y, z'
loop_
 _atom_site_type_symbol
 _atom_site_label
 _atom_site_symmetry_multiplicity
 _atom_site_fract_x
 _atom_site_fract_y
 _atom_site_fract_z
 _atom_site_occupancy
  F  F0  1  0.16830143  0.89177211  0.00000000  1
  F  F1  1  -0.16830143  -0.89177211  -0.00000000  1
  F  F2  1  0.33169857  1.39177211  0.50000000  1
  F  F3  1  0.66830143  -0.39177211  0.50000000  1
  F  F4  1  0.00000000  0.00000000  0.00000000  1
  F  F5  1  0.50000000  0.50000000  0.50000000  1
  Li  Li6  1  0.10669664  0.32642176  0.00000000  1
  Li  Li7  1  0.89330336  0.67357824  0.00000000  1
  Li  Li8  1  0.39330336  0.82642176  0.50000000  1
  Li  Li9  1  0.60669664  0.17357824  0.50000000  1
  Li  Li10  1  0.00000000  0.00000000  0.50000000  1
  Li  Li11  1  0.50000000  0.50000000  0.00000000  1
