# generated using pymatgen
data_LiF
_symmetry_space_group_name_H-M   'P 1'
_cell_length_a   7.16889043
_cell_length_b   9.80734850
_cell_length_c   8.70235513
_cell_angle_alpha   90.00000000
_cell_angle_beta   90.00000000
_cell_angle_gamma   90.00000000
_symmetry_Int_Tables_number   1
_chemical_formula_structural   LiF
_chemical_formula_sum   'Li24 F24'
_cell_volume   611.84350336
_cell_formula_units_Z   24
loop_
 _symmetry_equiv_pos_site_id
 _symmetry_equiv_pos_as_xyz
  1  'x, y, z'
loop_
 _atom_site_type_symbol
 _atom_site_label
 _atom_site_symmetry_multiplicity
 _atom_site_fract_x
 _atom_site_fract_y
 _atom_site_fract_z
 _atom_site_occupancy
  F  F0  1  0.00000000  0.50000000  0.00000000  1
  F  F1  1  0.50000000  0.00000000  0.00000000  1
  F  F2  1  0.00000000  0.00000000  0.62644274  1
  F  F3  1  0.50000000  0.50000000  0.37355726  1
  F  F4  1  0.00000000  0.00000000  0.37355726  1
  F  F5  1  0.50000000  0.50000000  0.62644274  1
  F  F6  1  0.00000000  0.00000000  0.50000000  1
  F  F7  1  0.50000000  0.50000000  0.50000000  1
  F  F8  1  0.09806207  0.60614613  0.08708525  1
  F  F9  1  0.90193793  0.39385387  0.08708525  1
  F  F10  1  0.40193793  0.10614613  0.91291475  1
  F  F11  1  0.59806207  0.89385387  0.91291475  1
  F  F12  1  0.90193793  0.39385387  0.91291475  1
  F  F13  1  0.09806207  0.60614613  0.91291475  1
  F  F14  1  0.59806207  0.89385387  0.08708525  1
  F  F15  1  0.40193793  0.10614613  0.08708525  1
  F  F16  1  0.29990464  0.19194604  0.34935281  1
  F  F17  1  0.70009536  0.80805396  0.34935281  1
  F  F18  1  0.20009536  0.69194604  0.65064719  1
  F  F19  1  0.79990464  0.30805396  0.65064719  1
  F  F20  1  0.70009536  0.80805396  0.65064719  1
  F  F21  1  0.29990464  0.19194604  0.65064719  1
  F  F22  1  0.79990464  0.30805396  0.34935281  1
  F  F23  1  0.20009536  0.69194604  0.34935281  1
  Li  Li24  1  0.00000000  0.50000000  0.50000000  1
  Li  Li25  1  0.50000000  0.00000000  0.50000000  1
  Li  Li26  1  0.00000000  0.00000000  0.00000000  1
  Li  Li27  1  0.50000000  0.50000000  0.00000000  1
  Li  Li28  1  0.37601801  0.20877136  0.74500712  1
  Li  Li29  1  -0.37601801  -0.20877136  0.74500712  1
  Li  Li30  1  0.12398199  0.70877136  -0.74500712  1
  Li  Li31  1  0.87601801  0.29122864  -0.74500712  1
  Li  Li32  1  -0.37601801  -0.20877136  -0.74500712  1
  Li  Li33  1  0.37601801  0.20877136  -0.74500712  1
  Li  Li34  1  0.87601801  0.29122864  0.74500712  1
  Li  Li35  1  0.12398199  0.70877136  0.74500712  1
  Li  Li36  1  0.67188572  0.22846205  0.21982991  1
  Li  Li37  1  0.32811428  0.77153795  0.21982991  1
  Li  Li38  1  0.82811428  0.72846205  0.78017009  1
  Li  Li39  1  0.17188572  0.27153795  0.78017009  1
  Li  Li40  1  0.32811428  0.77153795  0.78017009  1
  Li  Li41  1  0.67188572  0.22846205  0.78017009  1
  Li  Li42  1  0.17188572  0.27153795  0.21982991  1
  Li  Li43  1  0.82811428  0.72846205  0.21982991  1
  Li  Li44  1  0.00000000  0.00000000  0.22414225  1
  Li  Li45  1  0.50000000  0.50000000  0.77585775  1
  Li  Li46  1  0.00000000  0.00000000  0.77585775  1
  Li  Li47  1  0.50000000  0.50000000  0.22414225  1
