# generated using pymatgen
data_LiF
_symmetry_space_group_name_H-M   'P 1'
_cell_length_a   10.20785969
_cell_length_b   10.20785969
_cell_length_c   22.61566016
_cell_angle_alpha   90.00000000
_cell_angle_beta   90.00000000
_cell_angle_gamma   120.00000000
_symmetry_Int_Tables_number   1
_chemical_formula_structural   LiF
_chemical_formula_sum   'Li64 F64'
_cell_volume   2040.84153977
_cell_formula_units_Z   64
loop_
 _symmetry_equiv_pos_site_id
 _symmetry_equiv_pos_as_xyz
  1  'x, y, z'
loop_
 _atom_site_type_symbol
 _atom_site_label
 _atom_site_symmetry_multiplicity
 _atom_site_fract_x
 _atom_site_fract_y
 _atom_site_fract_z
 _atom_site_occupancy
  F  F0  1  0.73852799  0.69642555  0.11450935  1
  F  F1  1  -0.69642555  0.04210244  0.11450935  1
  F  F2  1  -0.04210244  -0.73852799  0.11450935  1
  F  F3  1  0.73852799  0.69642555  -0.11450935  1
  F  F4  1  -0.69642555  0.04210244  -0.11450935  1
  F  F5  1  -0.04210244  -0.73852799  -0.11450935  1
  F  F6  1  0.69642555  0.73852799  -0.11450935  1
  F  F7  1  0.04210244  -0.69642555  -0.11450935  1
  F  F8  1  -0.73852799  -0.04210244  -0.11450935  1
  F  F9  1  0.69642555  0.73852799  0.11450935  1
  F  F10  1  0.04210244  -0.69642555  0.11450935  1
  F  F11  1  -0.73852799  -0.04210244  0.11450935  1
  F  F12  1  0.58519496  0.49808996  0.50000000  1
  F  F13  1  0.50191004  0.08710501  0.50000000  1
  F  F14  1  0.91289499  0.41480504  0.50000000  1
  F  F15  1  0.49808996  0.58519496  0.50000000  1
  F  F16  1  0.08710501  0.50191004  0.50000000  1
  F  F17  1  0.41480504  0.91289499  0.50000000  1
  F  F18  1  0.39949640  -0.00000000  0.27563910  1
  F  F19  1  0.00000000  0.39949640  0.27563910  1
  F  F20  1  0.60050360  0.60050360  0.27563910  1
  F  F21  1  0.39949640  -0.00000000  0.72436090  1
  F  F22  1  0.00000000  0.39949640  0.72436090  1
  F  F23  1  0.60050360  0.60050360  0.72436090  1
  F  F24  1  0.68039484  0.25492504  0.16151943  1
  F  F25  1  0.74507496  0.42546980  0.16151943  1
  F  F26  1  0.57453020  0.31960516  0.16151943  1
  F  F27  1  0.68039484  0.25492504  0.83848057  1
  F  F28  1  0.74507496  0.42546980  0.83848057  1
  F  F29  1  0.57453020  0.31960516  0.83848057  1
  F  F30  1  0.25492504  0.68039484  0.83848057  1
  F  F31  1  0.42546980  0.74507496  0.83848057  1
  F  F32  1  0.31960516  0.57453020  0.83848057  1
  F  F33  1  0.25492504  0.68039484  0.16151943  1
  F  F34  1  0.42546980  0.74507496  0.16151943  1
  F  F35  1  0.31960516  0.57453020  0.16151943  1
  F  F36  1  0.64811802  0.22850048  0.54122477  1
  F  F37  1  0.77149952  0.41961754  0.54122477  1
  F  F38  1  0.58038246  0.35188198  0.54122477  1
  F  F39  1  0.64811802  0.22850048  0.45877523  1
  F  F40  1  0.77149952  0.41961754  0.45877523  1
  F  F41  1  0.58038246  0.35188198  0.45877523  1
  F  F42  1  0.22850048  0.64811802  0.45877523  1
  F  F43  1  0.41961754  0.77149952  0.45877523  1
  F  F44  1  0.35188198  0.58038246  0.45877523  1
  F  F45  1  0.22850048  0.64811802  0.54122477  1
  F  F46  1  0.41961754  0.77149952  0.54122477  1
  F  F47  1  0.35188198  0.58038246  0.54122477  1
  F  F48  1  0.56810712  0.62220663  0.22529232  1
  F  F49  1  0.37779337  0.94590049  0.22529232  1
  F  F50  1  0.05409951  0.43189288  0.22529232  1
  F  F51  1  0.56810712  0.62220663  0.77470768  1
  F  F52  1  0.37779337  0.94590049  0.77470768  1
  F  F53  1  0.05409951  0.43189288  0.77470768  1
  F  F54  1  0.62220663  0.56810712  0.77470768  1
  F  F55  1  0.94590049  0.37779337  0.77470768  1
  F  F56  1  0.43189288  0.05409951  0.77470768  1
  F  F57  1  0.62220663  0.56810712  0.22529232  1
  F  F58  1  0.94590049  0.37779337  0.22529232  1
  F  F59  1  0.43189288  0.05409951  0.22529232  1
  F  F60  1  0.33333333  0.66666667  0.70851991  1
  F  F61  1  0.33333333  0.66666667  0.29148009  1
  F  F62  1  0.66666667  0.33333333  0.29148009  1
  F  F63  1  0.66666667  0.33333333  0.70851991  1
  Li  Li64  1  0.14861265  0.48274990  0.08181289  1
  Li  Li65  1  0.51725010  0.66586275  0.08181289  1
  Li  Li66  1  0.33413725  0.85138735  0.08181289  1
  Li  Li67  1  0.14861265  0.48274990  0.91818711  1
  Li  Li68  1  0.51725010  0.66586275  0.91818711  1
  Li  Li69  1  0.33413725  0.85138735  0.91818711  1
  Li  Li70  1  0.48274990  0.14861265  0.91818711  1
  Li  Li71  1  0.66586275  0.51725010  0.91818711  1
  Li  Li72  1  0.85138735  0.33413725  0.91818711  1
  Li  Li73  1  0.48274990  0.14861265  0.08181289  1
  Li  Li74  1  0.66586275  0.51725010  0.08181289  1
  Li  Li75  1  0.85138735  0.33413725  0.08181289  1
  Li  Li76  1  0.16323882  0.29768128  0.06402524  1
  Li  Li77  1  0.70231872  0.86555754  0.06402524  1
  Li  Li78  1  0.13444246  0.83676118  0.06402524  1
  Li  Li79  1  0.16323882  0.29768128  0.93597476  1
  Li  Li80  1  0.70231872  0.86555754  0.93597476  1
  Li  Li81  1  0.13444246  0.83676118  0.93597476  1
  Li  Li82  1  0.29768128  0.16323882  0.93597476  1
  Li  Li83  1  0.86555754  0.70231872  0.93597476  1
  Li  Li84  1  0.83676118  0.13444246  0.93597476  1
  Li  Li85  1  0.29768128  0.16323882  0.06402524  1
  Li  Li86  1  0.86555754  0.70231872  0.06402524  1
  Li  Li87  1  0.83676118  0.13444246  0.06402524  1
  Li  Li88  1  0.92049987  0.21999451  0.26653856  1
  Li  Li89  1  0.78000549  0.70050536  0.26653856  1
  Li  Li90  1  0.29949464  0.07950013  0.26653856  1
  Li  Li91  1  0.92049987  0.21999451  0.73346144  1
  Li  Li92  1  0.78000549  0.70050536  0.73346144  1
  Li  Li93  1  0.29949464  0.07950013  0.73346144  1
  Li  Li94  1  0.21999451  0.92049987  0.73346144  1
  Li  Li95  1  0.70050536  0.78000549  0.73346144  1
  Li  Li96  1  0.07950013  0.29949464  0.73346144  1
  Li  Li97  1  0.21999451  0.92049987  0.26653856  1
  Li  Li98  1  0.70050536  0.78000549  0.26653856  1
  Li  Li99  1  0.07950013  0.29949464  0.26653856  1
  Li  Li100  1  0.46457784  0.00000000  -0.00000000  1
  Li  Li101  1  0.00000000  0.46457784  -0.00000000  1
  Li  Li102  1  0.53542216  0.53542216  0.00000000  1
  Li  Li103  1  0.86958865  0.31045819  0.18609259  1
  Li  Li104  1  0.68954181  0.55913046  0.18609259  1
  Li  Li105  1  0.44086954  0.13041135  0.18609259  1
  Li  Li106  1  0.86958865  0.31045819  0.81390741  1
  Li  Li107  1  0.68954181  0.55913046  0.81390741  1
  Li  Li108  1  0.44086954  0.13041135  0.81390741  1
  Li  Li109  1  0.31045819  0.86958865  0.81390741  1
  Li  Li110  1  0.55913046  0.68954181  0.81390741  1
  Li  Li111  1  0.13041135  0.44086954  0.81390741  1
  Li  Li112  1  0.31045819  0.86958865  0.18609259  1
  Li  Li113  1  0.55913046  0.68954181  0.18609259  1
  Li  Li114  1  0.13041135  0.44086954  0.18609259  1
  Li  Li115  1  0.10854294  0.00000000  0.38926976  1
  Li  Li116  1  0.00000000  0.10854294  0.38926976  1
  Li  Li117  1  0.89145706  0.89145706  0.38926976  1
  Li  Li118  1  0.10854294  0.00000000  0.61073024  1
  Li  Li119  1  0.00000000  0.10854294  0.61073024  1
  Li  Li120  1  0.89145706  0.89145706  0.61073024  1
  Li  Li121  1  0.00000000  0.00000000  0.50000000  1
  Li  Li122  1  0.33333333  0.66666667  0.50000000  1
  Li  Li123  1  0.66666667  0.33333333  0.50000000  1
  Li  Li124  1  0.33333333  0.66666667  0.94796597  1
  Li  Li125  1  0.33333333  0.66666667  0.05203403  1
  Li  Li126  1  0.66666667  0.33333333  0.05203403  1
  Li  Li127  1  0.66666667  0.33333333  0.94796597  1
