# generated using pymatgen
data_Li3Y2P4Se
_symmetry_space_group_name_H-M   'P 1'
_cell_length_a   5.32201892
_cell_length_b   5.43230333
_cell_length_c   7.40990432
_cell_angle_alpha   94.23634146
_cell_angle_beta   99.22587098
_cell_angle_gamma   107.01569995
_symmetry_Int_Tables_number   1
_chemical_formula_structural   Li3Y2P4Se
_chemical_formula_sum   'Li3 Y2 P4 Se1'
_cell_volume   200.53610170
_cell_formula_units_Z   1
loop_
 _symmetry_equiv_pos_site_id
 _symmetry_equiv_pos_as_xyz
  1  'x, y, z'
loop_
 _atom_site_type_symbol
 _atom_site_label
 _atom_site_symmetry_multiplicity
 _atom_site_fract_x
 _atom_site_fract_y
 _atom_site_fract_z
 _atom_site_occupancy
  Se  Se0  1  0.00000000  0.00000000  0.00000000  1
  Y  Y1  1  0.50000000  0.50000000  0.50000000  1
  Y  Y2  1  0.50000000  0.50000000  0.00000000  1
  P  P3  1  0.50000000  0.00000000  0.50000000  1
  P  P4  1  0.00000000  0.50000000  0.50000000  1
  P  P5  1  0.99599023  0.93820355  0.03170552  1
  P  P6  1  0.16802803  0.93154719  0.53660538  1
  Li  Li7  1  0.25487792  0.88314260  0.23200846  1
  Li  Li8  1  0.97031712  0.56099001  0.94167325  1
  Li  Li9  1  0.17596368  0.90548965  0.46456110  1
