# generated using pymatgen
data_Li4TeF2
_symmetry_space_group_name_H-M   'P 1'
_cell_length_a   16.26154543
_cell_length_b   16.26154543
_cell_length_c   11.06410796
_cell_angle_alpha   90.00000000
_cell_angle_beta   90.00000000
_cell_angle_gamma   90.00000000
_symmetry_Int_Tables_number   1
_chemical_formula_structural   Li4TeF2
_chemical_formula_sum   'Li96 Te24 F48'
_cell_volume   2925.76903216
_cell_formula_units_Z   24
loop_
 _symmetry_equiv_pos_site_id
 _symmetry_equiv_pos_as_xyz
  1  'x, y, z'
loop_
 _atom_site_type_symbol
 _atom_site_label
 _atom_site_symmetry_multiplicity
 _atom_site_fract_x
 _atom_site_fract_y
 _atom_site_fract_z
 _atom_site_occupancy
  F  F0  1  0.82235283  0.70262295  0.97622987  1
  F  F1  1  -0.32235283  -0.70262295  1.47622987  1
  F  F2  1  -0.45262295  1.57235283  1.22622987  1
  F  F3  1  0.95262295  -0.57235283  1.72622987  1
  F  F4  1  -0.32235283  0.70262295  -0.97622987  1
  F  F5  1  0.82235283  -0.70262295  -0.47622987  1
  F  F6  1  0.95262295  1.57235283  -0.22622987  1
  F  F7  1  -0.45262295  -0.57235283  -0.72622987  1
  F  F8  1  -0.82235283  -0.70262295  -0.97622987  1
  F  F9  1  1.32235283  0.70262295  -0.47622987  1
  F  F10  1  1.45262295  -0.57235283  -0.22622987  1
  F  F11  1  0.04737705  1.57235283  -0.72622987  1
  F  F12  1  1.32235283  -0.70262295  0.97622987  1
  F  F13  1  -0.82235283  0.70262295  1.47622987  1
  F  F14  1  0.04737705  -0.57235283  1.22622987  1
  F  F15  1  1.45262295  1.57235283  1.72622987  1
  F  F16  1  1.32235283  1.20262295  1.47622987  1
  F  F17  1  0.17764717  -0.20262295  1.97622987  1
  F  F18  1  0.04737705  2.07235283  1.72622987  1
  F  F19  1  1.45262295  -0.07235283  2.22622987  1
  F  F20  1  0.17764717  1.20262295  -0.47622987  1
  F  F21  1  1.32235283  -0.20262295  0.02377013  1
  F  F22  1  1.45262295  2.07235283  0.27377013  1
  F  F23  1  0.04737705  -0.07235283  -0.22622987  1
  F  F24  1  -0.32235283  -0.20262295  -0.47622987  1
  F  F25  1  1.82235283  1.20262295  0.02377013  1
  F  F26  1  1.95262295  -0.07235283  0.27377013  1
  F  F27  1  0.54737705  2.07235283  -0.22622987  1
  F  F28  1  1.82235283  -0.20262295  1.47622987  1
  F  F29  1  -0.32235283  1.20262295  1.97622987  1
  F  F30  1  0.54737705  -0.07235283  1.72622987  1
  F  F31  1  1.95262295  2.07235283  2.22622987  1
  F  F32  1  0.88896216  0.13896216  0.12500000  1
  F  F33  1  0.61103784  0.86103784  0.62500000  1
  F  F34  1  0.11103784  0.63896216  0.37500000  1
  F  F35  1  0.38896216  0.36103784  0.87500000  1
  F  F36  1  0.11103784  0.86103784  0.87500000  1
  F  F37  1  0.38896216  0.13896216  0.37500000  1
  F  F38  1  0.88896216  0.36103784  0.62500000  1
  F  F39  1  0.61103784  0.63896216  0.12500000  1
  F  F40  1  0.38896216  0.63896216  0.62500000  1
  F  F41  1  0.11103784  0.36103784  0.12500000  1
  F  F42  1  0.61103784  0.13896216  0.87500000  1
  F  F43  1  0.88896216  0.86103784  0.37500000  1
  F  F44  1  0.61103784  0.36103784  0.37500000  1
  F  F45  1  0.88896216  0.63896216  0.87500000  1
  F  F46  1  0.38896216  0.86103784  0.12500000  1
  F  F47  1  0.11103784  0.13896216  0.62500000  1
  Li  Li48  1  0.00000000  0.25000000  0.31200501  1
  Li  Li49  1  0.00000000  0.75000000  0.56200501  1
  Li  Li50  1  0.50000000  0.25000000  0.68799499  1
  Li  Li51  1  0.50000000  0.75000000  0.43799499  1
  Li  Li52  1  0.00000000  0.75000000  0.68799499  1
  Li  Li53  1  0.00000000  0.25000000  0.43799499  1
  Li  Li54  1  0.50000000  0.75000000  0.31200501  1
  Li  Li55  1  0.50000000  0.25000000  0.56200501  1
  Li  Li56  1  0.50000000  0.75000000  0.81200501  1
  Li  Li57  1  0.50000000  0.25000000  0.06200501  1
  Li  Li58  1  0.00000000  0.75000000  0.18799499  1
  Li  Li59  1  0.00000000  0.25000000  0.93799499  1
  Li  Li60  1  0.50000000  0.25000000  0.18799499  1
  Li  Li61  1  0.50000000  0.75000000  0.93799499  1
  Li  Li62  1  0.00000000  0.25000000  0.81200501  1
  Li  Li63  1  0.00000000  0.75000000  0.06200501  1
  Li  Li64  1  0.30672897  0.49741993  0.92516093  1
  Li  Li65  1  0.19327103  0.50258007  0.42516093  1
  Li  Li66  1  0.75258007  0.05672897  0.17516093  1
  Li  Li67  1  0.74741993  0.94327103  0.67516093  1
  Li  Li68  1  0.19327103  0.49741993  0.07483907  1
  Li  Li69  1  0.30672897  0.50258007  0.57483907  1
  Li  Li70  1  0.74741993  0.05672897  0.82483907  1
  Li  Li71  1  0.75258007  0.94327103  0.32483907  1
  Li  Li72  1  0.69327103  0.50258007  0.07483907  1
  Li  Li73  1  0.80672897  0.49741993  0.57483907  1
  Li  Li74  1  0.24741993  0.94327103  0.82483907  1
  Li  Li75  1  0.25258007  0.05672897  0.32483907  1
  Li  Li76  1  0.80672897  0.50258007  0.92516093  1
  Li  Li77  1  0.69327103  0.49741993  0.42516093  1
  Li  Li78  1  0.25258007  0.94327103  0.17516093  1
  Li  Li79  1  0.24741993  0.05672897  0.67516093  1
  Li  Li80  1  0.80672897  0.99741993  0.42516093  1
  Li  Li81  1  0.69327103  0.00258007  0.92516093  1
  Li  Li82  1  0.25258007  0.55672897  0.67516093  1
  Li  Li83  1  0.24741993  0.44327103  0.17516093  1
  Li  Li84  1  0.69327103  0.99741993  0.57483907  1
  Li  Li85  1  0.80672897  0.00258007  0.07483907  1
  Li  Li86  1  0.24741993  0.55672897  0.32483907  1
  Li  Li87  1  0.25258007  0.44327103  0.82483907  1
  Li  Li88  1  0.19327103  0.00258007  0.57483907  1
  Li  Li89  1  0.30672897  0.99741993  0.07483907  1
  Li  Li90  1  0.74741993  0.44327103  0.32483907  1
  Li  Li91  1  0.75258007  0.55672897  0.82483907  1
  Li  Li92  1  0.30672897  0.00258007  0.42516093  1
  Li  Li93  1  0.19327103  0.99741993  0.92516093  1
  Li  Li94  1  0.75258007  0.44327103  0.67516093  1
  Li  Li95  1  0.74741993  0.55672897  0.17516093  1
  Li  Li96  1  0.98769258  0.38095108  0.70610985  1
  Li  Li97  1  0.51230742  0.61904892  0.20610985  1
  Li  Li98  1  0.86904892  0.73769258  0.95610985  1
  Li  Li99  1  0.63095108  0.26230742  0.45610985  1
  Li  Li100  1  0.51230742  0.38095108  0.29389015  1
  Li  Li101  1  0.98769258  0.61904892  0.79389015  1
  Li  Li102  1  0.63095108  0.73769258  0.04389015  1
  Li  Li103  1  0.86904892  0.26230742  0.54389015  1
  Li  Li104  1  0.01230742  0.61904892  0.29389015  1
  Li  Li105  1  0.48769258  0.38095108  0.79389015  1
  Li  Li106  1  0.13095108  0.26230742  0.04389015  1
  Li  Li107  1  0.36904892  0.73769258  0.54389015  1
  Li  Li108  1  0.48769258  0.61904892  0.70610985  1
  Li  Li109  1  0.01230742  0.38095108  0.20610985  1
  Li  Li110  1  0.36904892  0.26230742  0.95610985  1
  Li  Li111  1  0.13095108  0.73769258  0.45610985  1
  Li  Li112  1  0.48769258  0.88095108  0.20610985  1
  Li  Li113  1  0.01230742  0.11904892  0.70610985  1
  Li  Li114  1  0.36904892  0.23769258  0.45610985  1
  Li  Li115  1  0.13095108  0.76230742  0.95610985  1
  Li  Li116  1  0.01230742  0.88095108  0.79389015  1
  Li  Li117  1  0.48769258  0.11904892  0.29389015  1
  Li  Li118  1  0.13095108  0.23769258  0.54389015  1
  Li  Li119  1  0.36904892  0.76230742  0.04389015  1
  Li  Li120  1  0.51230742  0.11904892  0.79389015  1
  Li  Li121  1  0.98769258  0.88095108  0.29389015  1
  Li  Li122  1  0.63095108  0.76230742  0.54389015  1
  Li  Li123  1  0.86904892  0.23769258  0.04389015  1
  Li  Li124  1  0.98769258  0.11904892  0.20610985  1
  Li  Li125  1  0.51230742  0.88095108  0.70610985  1
  Li  Li126  1  0.86904892  0.76230742  0.45610985  1
  Li  Li127  1  0.63095108  0.23769258  0.95610985  1
  Li  Li128  1  0.70683522  -0.00000000  0.25000000  1
  Li  Li129  1  0.79316478  0.00000000  0.75000000  1
  Li  Li130  1  0.25000000  0.45683522  0.50000000  1
  Li  Li131  1  0.25000000  0.54316478  -0.00000000  1
  Li  Li132  1  0.29316478  0.00000000  0.75000000  1
  Li  Li133  1  0.20683522  0.00000000  0.25000000  1
  Li  Li134  1  0.75000000  0.54316478  0.50000000  1
  Li  Li135  1  0.75000000  0.45683522  0.00000000  1
  Li  Li136  1  0.20683522  0.50000000  0.75000000  1
  Li  Li137  1  0.29316478  0.50000000  0.25000000  1
  Li  Li138  1  0.75000000  0.95683522  0.00000000  1
  Li  Li139  1  0.75000000  0.04316478  0.50000000  1
  Li  Li140  1  0.79316478  0.50000000  0.25000000  1
  Li  Li141  1  0.70683522  0.50000000  0.75000000  1
  Li  Li142  1  0.25000000  0.04316478  0.00000000  1
  Li  Li143  1  0.25000000  0.95683522  0.50000000  1
  Te  Te144  1  0.00000000  0.00000000  0.00000000  1
  Te  Te145  1  0.50000000  0.00000000  0.50000000  1
  Te  Te146  1  0.25000000  0.75000000  0.25000000  1
  Te  Te147  1  0.25000000  0.25000000  0.75000000  1
  Te  Te148  1  0.50000000  0.00000000  0.00000000  1
  Te  Te149  1  0.00000000  0.00000000  0.50000000  1
  Te  Te150  1  0.25000000  0.75000000  0.75000000  1
  Te  Te151  1  0.25000000  0.25000000  0.25000000  1
  Te  Te152  1  0.50000000  0.50000000  0.50000000  1
  Te  Te153  1  0.00000000  0.50000000  0.00000000  1
  Te  Te154  1  0.75000000  0.25000000  0.75000000  1
  Te  Te155  1  0.75000000  0.75000000  0.25000000  1
  Te  Te156  1  0.00000000  0.50000000  0.50000000  1
  Te  Te157  1  0.50000000  0.50000000  0.00000000  1
  Te  Te158  1  0.75000000  0.25000000  0.25000000  1
  Te  Te159  1  0.75000000  0.75000000  0.75000000  1
  Te  Te160  1  0.00000000  0.25000000  0.12500000  1
  Te  Te161  1  0.00000000  0.75000000  0.37500000  1
  Te  Te162  1  0.00000000  0.75000000  0.87500000  1
  Te  Te163  1  0.00000000  0.25000000  0.62500000  1
  Te  Te164  1  0.50000000  0.75000000  0.62500000  1
  Te  Te165  1  0.50000000  0.25000000  0.87500000  1
  Te  Te166  1  0.50000000  0.25000000  0.37500000  1
  Te  Te167  1  0.50000000  0.75000000  0.12500000  1
