# generated using pymatgen
data_LiF
_symmetry_space_group_name_H-M   'P 1'
_cell_length_a   5.11029311
_cell_length_b   8.40226494
_cell_length_c   9.50935412
_cell_angle_alpha   90.00000000
_cell_angle_beta   90.00000000
_cell_angle_gamma   90.00000000
_symmetry_Int_Tables_number   1
_chemical_formula_structural   LiF
_chemical_formula_sum   'Li24 F24'
_cell_volume   408.31299554
_cell_formula_units_Z   24
loop_
 _symmetry_equiv_pos_site_id
 _symmetry_equiv_pos_as_xyz
  1  'x, y, z'
loop_
 _atom_site_type_symbol
 _atom_site_label
 _atom_site_symmetry_multiplicity
 _atom_site_fract_x
 _atom_site_fract_y
 _atom_site_fract_z
 _atom_site_occupancy
  F  F0  1  0.00000000  0.00000000  0.50000000  1
  F  F1  1  0.50000000  0.50000000  0.00000000  1
  F  F2  1  0.11295038  0.57421695  0.81298469  1
  F  F3  1  0.88704962  0.42578305  0.81298469  1
  F  F4  1  0.38704962  0.07421695  0.68701531  1
  F  F5  1  0.61295038  0.92578305  0.68701531  1
  F  F6  1  0.88704962  0.42578305  0.18701531  1
  F  F7  1  0.11295038  0.57421695  0.18701531  1
  F  F8  1  0.61295038  0.92578305  0.31298469  1
  F  F9  1  0.38704962  0.07421695  0.31298469  1
  F  F10  1  0.96763393  0.24921444  0.94413928  1
  F  F11  1  0.03236607  0.75078556  0.94413928  1
  F  F12  1  0.53236607  0.74921444  0.55586072  1
  F  F13  1  0.46763393  0.25078556  0.55586072  1
  F  F14  1  0.03236607  0.75078556  0.05586072  1
  F  F15  1  0.96763393  0.24921444  0.05586072  1
  F  F16  1  0.46763393  0.25078556  0.44413928  1
  F  F17  1  0.53236607  0.74921444  0.44413928  1
  F  F18  1  0.00000000  0.50000000  0.82245565  1
  F  F19  1  0.50000000  0.00000000  0.67754435  1
  F  F20  1  0.00000000  0.50000000  0.17754435  1
  F  F21  1  0.50000000  0.00000000  0.32245565  1
  F  F22  1  0.00000000  0.00000000  0.00000000  1
  F  F23  1  0.50000000  0.50000000  0.50000000  1
  Li  Li24  1  0.97891777  0.34975721  -0.00000000  1
  Li  Li25  1  0.02108223  0.65024279  0.00000000  1
  Li  Li26  1  0.52108223  0.84975721  0.50000000  1
  Li  Li27  1  0.47891777  0.15024279  0.50000000  1
  Li  Li28  1  0.86023664  0.88269157  0.00000000  1
  Li  Li29  1  0.13976336  0.11730843  0.00000000  1
  Li  Li30  1  0.63976336  0.38269157  0.50000000  1
  Li  Li31  1  0.36023664  0.61730843  0.50000000  1
  Li  Li32  1  0.01796258  0.69897631  0.82578133  1
  Li  Li33  1  -0.01796258  -0.69897631  0.82578133  1
  Li  Li34  1  0.48203742  1.19897631  -0.32578133  1
  Li  Li35  1  0.51796258  -0.19897631  -0.32578133  1
  Li  Li36  1  -0.01796258  -0.69897631  -0.82578133  1
  Li  Li37  1  0.01796258  0.69897631  -0.82578133  1
  Li  Li38  1  0.51796258  -0.19897631  1.32578133  1
  Li  Li39  1  0.48203742  1.19897631  1.32578133  1
  Li  Li40  1  0.98403035  0.09923730  0.16328422  1
  Li  Li41  1  0.01596965  0.90076270  0.16328422  1
  Li  Li42  1  0.51596965  0.59923730  0.33671578  1
  Li  Li43  1  0.48403035  0.40076270  0.33671578  1
  Li  Li44  1  0.01596965  0.90076270  0.83671578  1
  Li  Li45  1  0.98403035  0.09923730  0.83671578  1
  Li  Li46  1  0.48403035  0.40076270  0.66328422  1
  Li  Li47  1  0.51596965  0.59923730  0.66328422  1
