# generated using pymatgen
data_LiF
_symmetry_space_group_name_H-M   'P 1'
_cell_length_a   10.66546166
_cell_length_b   10.66546166
_cell_length_c   19.95426788
_cell_angle_alpha   90.00000000
_cell_angle_beta   90.00000000
_cell_angle_gamma   120.00000000
_symmetry_Int_Tables_number   1
_chemical_formula_structural   LiF
_chemical_formula_sum   'Li66 F66'
_cell_volume   1965.73851889
_cell_formula_units_Z   66
loop_
 _symmetry_equiv_pos_site_id
 _symmetry_equiv_pos_as_xyz
  1  'x, y, z'
loop_
 _atom_site_type_symbol
 _atom_site_label
 _atom_site_symmetry_multiplicity
 _atom_site_fract_x
 _atom_site_fract_y
 _atom_site_fract_z
 _atom_site_occupancy
  F  F0  1  0.17304997  0.19059065  0.91175917  1
  F  F1  1  0.80940935  0.98245933  0.91175917  1
  F  F2  1  0.01754067  0.82695003  0.91175917  1
  F  F3  1  0.19059065  0.17304997  0.58824083  1
  F  F4  1  0.98245933  0.80940935  0.58824083  1
  F  F5  1  0.82695003  0.01754067  0.58824083  1
  F  F6  1  0.82695003  0.80940935  0.08824083  1
  F  F7  1  0.19059065  0.01754067  0.08824083  1
  F  F8  1  0.98245933  0.17304997  0.08824083  1
  F  F9  1  0.80940935  0.82695003  0.41175917  1
  F  F10  1  0.01754067  0.19059065  0.41175917  1
  F  F11  1  0.17304997  0.98245933  0.41175917  1
  F  F12  1  0.83971664  0.52392398  0.24509250  1
  F  F13  1  0.47607602  0.31579266  0.24509250  1
  F  F14  1  0.68420734  0.16028336  0.24509250  1
  F  F15  1  0.85725731  0.50638330  0.92157417  1
  F  F16  1  0.64912599  0.14274269  0.92157417  1
  F  F17  1  0.49361670  0.35087401  0.92157417  1
  F  F18  1  0.49361670  0.14274269  0.42157417  1
  F  F19  1  0.85725731  0.35087401  0.42157417  1
  F  F20  1  0.64912599  0.50638330  0.42157417  1
  F  F21  1  0.47607602  0.16028336  0.74509250  1
  F  F22  1  0.68420734  0.52392398  0.74509250  1
  F  F23  1  0.83971664  0.31579266  0.74509250  1
  F  F24  1  0.50638330  0.85725731  0.57842583  1
  F  F25  1  0.14274269  0.64912599  0.57842583  1
  F  F26  1  0.35087401  0.49361670  0.57842583  1
  F  F27  1  0.52392398  0.83971664  0.25490750  1
  F  F28  1  0.31579266  0.47607602  0.25490750  1
  F  F29  1  0.16028336  0.68420734  0.25490750  1
  F  F30  1  0.16028336  0.47607602  0.75490750  1
  F  F31  1  0.52392398  0.68420734  0.75490750  1
  F  F32  1  0.31579266  0.83971664  0.75490750  1
  F  F33  1  0.14274269  0.49361670  0.07842583  1
  F  F34  1  0.35087401  0.85725731  0.07842583  1
  F  F35  1  0.50638330  0.64912599  0.07842583  1
  F  F36  1  0.80229174  0.00000000  0.25000000  1
  F  F37  1  0.00000000  0.80229174  0.25000000  1
  F  F38  1  0.19770826  0.19770826  0.25000000  1
  F  F39  1  0.19770826  0.00000000  0.75000000  1
  F  F40  1  0.00000000  0.19770826  0.75000000  1
  F  F41  1  0.80229174  0.80229174  0.75000000  1
  F  F42  1  0.46895841  0.33333333  0.58333333  1
  F  F43  1  0.66666667  0.13562507  0.58333333  1
  F  F44  1  0.86437493  0.53104159  0.58333333  1
  F  F45  1  0.86437493  0.33333333  0.08333333  1
  F  F46  1  0.66666667  0.53104159  0.08333333  1
  F  F47  1  0.46895841  0.13562507  0.08333333  1
  F  F48  1  0.13562507  0.66666667  0.91666667  1
  F  F49  1  0.33333333  0.46895841  0.91666667  1
  F  F50  1  0.53104159  0.86437493  0.91666667  1
  F  F51  1  0.53104159  0.66666667  0.41666667  1
  F  F52  1  0.33333333  0.86437493  0.41666667  1
  F  F53  1  0.13562507  0.46895841  0.41666667  1
  F  F54  1  0.00000000  0.00000000  0.56923640  1
  F  F55  1  0.00000000  0.00000000  0.93076360  1
  F  F56  1  0.00000000  0.00000000  0.43076360  1
  F  F57  1  0.00000000  0.00000000  0.06923640  1
  F  F58  1  0.66666667  0.33333333  0.90256973  1
  F  F59  1  0.66666667  0.33333333  0.26409694  1
  F  F60  1  0.66666667  0.33333333  0.76409694  1
  F  F61  1  0.66666667  0.33333333  0.40256973  1
  F  F62  1  0.33333333  0.66666667  0.23590306  1
  F  F63  1  0.33333333  0.66666667  0.59743027  1
  F  F64  1  0.33333333  0.66666667  0.09743027  1
  F  F65  1  0.33333333  0.66666667  0.73590306  1
  Li  Li66  1  0.00819939  0.64844298  0.28642207  1
  Li  Li67  1  -0.64844298  -0.64024359  0.28642207  1
  Li  Li68  1  0.64024359  -0.00819939  0.28642207  1
  Li  Li69  1  0.64844298  0.00819939  0.21357793  1
  Li  Li70  1  -0.64024359  -0.64844298  0.21357793  1
  Li  Li71  1  -0.00819939  0.64024359  0.21357793  1
  Li  Li72  1  -0.00819939  -0.64844298  -0.28642207  1
  Li  Li73  1  0.64844298  0.64024359  -0.28642207  1
  Li  Li74  1  -0.64024359  0.00819939  -0.28642207  1
  Li  Li75  1  -0.64844298  -0.00819939  0.78642207  1
  Li  Li76  1  0.64024359  0.64844298  0.78642207  1
  Li  Li77  1  0.00819939  -0.64024359  0.78642207  1
  Li  Li78  1  0.67486606  0.98177631  0.61975541  1
  Li  Li79  1  0.01822369  -0.30691025  0.61975541  1
  Li  Li80  1  1.30691025  0.32513394  0.61975541  1
  Li  Li81  1  1.31510964  0.34153272  0.54691126  1
  Li  Li82  1  0.02642308  -0.31510964  0.54691126  1
  Li  Li83  1  0.65846728  0.97357692  0.54691126  1
  Li  Li84  1  0.65846728  -0.31510964  0.04691126  1
  Li  Li85  1  1.31510964  0.97357692  0.04691126  1
  Li  Li86  1  0.02642308  0.34153272  0.04691126  1
  Li  Li87  1  0.01822369  0.32513394  1.11975541  1
  Li  Li88  1  1.30691025  0.98177631  1.11975541  1
  Li  Li89  1  0.67486606  -0.30691025  1.11975541  1
  Li  Li90  1  0.34153272  1.31510964  0.95308874  1
  Li  Li91  1  -0.31510964  0.02642308  0.95308874  1
  Li  Li92  1  0.97357692  0.65846728  0.95308874  1
  Li  Li93  1  0.98177631  0.67486606  0.88024459  1
  Li  Li94  1  -0.30691025  0.01822369  0.88024459  1
  Li  Li95  1  0.32513394  1.30691025  0.88024459  1
  Li  Li96  1  0.32513394  0.01822369  0.38024459  1
  Li  Li97  1  0.98177631  1.30691025  0.38024459  1
  Li  Li98  1  -0.30691025  0.67486606  0.38024459  1
  Li  Li99  1  -0.31510964  0.65846728  1.45308874  1
  Li  Li100  1  0.97357692  1.31510964  1.45308874  1
  Li  Li101  1  0.34153272  0.02642308  1.45308874  1
  Li  Li102  1  0.50000000  0.00000000  0.00000000  1
  Li  Li103  1  0.00000000  0.50000000  0.00000000  1
  Li  Li104  1  0.50000000  0.50000000  0.00000000  1
  Li  Li105  1  0.00000000  0.50000000  0.50000000  1
  Li  Li106  1  0.50000000  0.00000000  0.50000000  1
  Li  Li107  1  0.50000000  0.50000000  0.50000000  1
  Li  Li108  1  0.16666667  0.33333333  0.33333333  1
  Li  Li109  1  0.66666667  0.83333333  0.33333333  1
  Li  Li110  1  0.16666667  0.83333333  0.33333333  1
  Li  Li111  1  0.66666667  0.83333333  0.83333333  1
  Li  Li112  1  0.16666667  0.33333333  0.83333333  1
  Li  Li113  1  0.16666667  0.83333333  0.83333333  1
  Li  Li114  1  0.83333333  0.66666667  0.66666667  1
  Li  Li115  1  0.33333333  0.16666667  0.66666667  1
  Li  Li116  1  0.83333333  0.16666667  0.66666667  1
  Li  Li117  1  0.33333333  0.16666667  0.16666667  1
  Li  Li118  1  0.83333333  0.66666667  0.16666667  1
  Li  Li119  1  0.83333333  0.16666667  0.16666667  1
  Li  Li120  1  0.00000000  0.00000000  0.25000000  1
  Li  Li121  1  0.00000000  0.00000000  0.75000000  1
  Li  Li122  1  0.66666667  0.33333333  0.58333333  1
  Li  Li123  1  0.66666667  0.33333333  0.08333333  1
  Li  Li124  1  0.33333333  0.66666667  0.91666667  1
  Li  Li125  1  0.33333333  0.66666667  0.41666667  1
  Li  Li126  1  0.00000000  0.00000000  0.00000000  1
  Li  Li127  1  0.00000000  0.00000000  0.50000000  1
  Li  Li128  1  0.66666667  0.33333333  0.33333333  1
  Li  Li129  1  0.66666667  0.33333333  0.83333333  1
  Li  Li130  1  0.33333333  0.66666667  0.66666667  1
  Li  Li131  1  0.33333333  0.66666667  0.16666667  1
