# generated using pymatgen
data_LiF
_symmetry_space_group_name_H-M   'P 1'
_cell_length_a   8.85211625
_cell_length_b   12.85713994
_cell_length_c   6.80595943
_cell_angle_alpha   90.00000000
_cell_angle_beta   90.00000000
_cell_angle_gamma   90.00000000
_symmetry_Int_Tables_number   1
_chemical_formula_structural   LiF
_chemical_formula_sum   'Li24 F24'
_cell_volume   774.60596241
_cell_formula_units_Z   24
loop_
 _symmetry_equiv_pos_site_id
 _symmetry_equiv_pos_as_xyz
  1  'x, y, z'
loop_
 _atom_site_type_symbol
 _atom_site_label
 _atom_site_symmetry_multiplicity
 _atom_site_fract_x
 _atom_site_fract_y
 _atom_site_fract_z
 _atom_site_occupancy
  F  F0  1  0.44024611  0.25000000  0.64931278  1
  F  F1  1  0.05975389  0.75000000  0.14931278  1
  F  F2  1  0.55975389  0.75000000  0.35068722  1
  F  F3  1  0.94024611  0.25000000  0.85068722  1
  F  F4  1  0.68709022  0.25000000  0.07245741  1
  F  F5  1  0.81290978  0.75000000  0.57245741  1
  F  F6  1  0.31290978  0.75000000  0.92754259  1
  F  F7  1  0.18709022  0.25000000  0.42754259  1
  F  F8  1  0.53240417  0.70404401  0.14288791  1
  F  F9  1  0.96759583  0.29595599  0.64288791  1
  F  F10  1  0.46759583  0.20404401  0.85711209  1
  F  F11  1  0.03240417  0.79595599  0.35711209  1
  F  F12  1  0.46759583  0.29595599  0.85711209  1
  F  F13  1  0.03240417  0.70404401  0.35711209  1
  F  F14  1  0.53240417  0.79595599  0.14288791  1
  F  F15  1  0.96759583  0.20404401  0.64288791  1
  F  F16  1  0.75367800  0.80613125  0.41324933  1
  F  F17  1  0.74632200  0.19386875  0.91324933  1
  F  F18  1  0.24632200  0.30613125  0.58675067  1
  F  F19  1  0.25367800  0.69386875  0.08675067  1
  F  F20  1  0.24632200  0.19386875  0.58675067  1
  F  F21  1  0.25367800  0.80613125  0.08675067  1
  F  F22  1  0.75367800  0.69386875  0.41324933  1
  F  F23  1  0.74632200  0.30613125  0.91324933  1
  Li  Li24  1  0.00000000  0.00000000  0.50000000  1
  Li  Li25  1  0.50000000  0.00000000  0.00000000  1
  Li  Li26  1  0.00000000  0.50000000  0.50000000  1
  Li  Li27  1  0.50000000  0.50000000  0.00000000  1
  Li  Li28  1  0.08200907  0.25000000  0.68322014  1
  Li  Li29  1  0.41799093  0.75000000  0.18322014  1
  Li  Li30  1  0.91799093  0.75000000  0.31677986  1
  Li  Li31  1  0.58200907  0.25000000  0.81677986  1
  Li  Li32  1  0.00000000  0.00000000  0.00000000  1
  Li  Li33  1  0.50000000  0.00000000  0.50000000  1
  Li  Li34  1  0.00000000  0.50000000  0.00000000  1
  Li  Li35  1  0.50000000  0.50000000  0.50000000  1
  Li  Li36  1  0.41780976  0.10967597  0.57772540  1
  Li  Li37  1  0.08219024  -0.10967597  1.07772540  1
  Li  Li38  1  -0.41780976  0.60967597  -0.57772540  1
  Li  Li39  1  0.91780976  0.39032403  -0.07772540  1
  Li  Li40  1  -0.41780976  -0.10967597  -0.57772540  1
  Li  Li41  1  0.91780976  0.10967597  -0.07772540  1
  Li  Li42  1  0.41780976  0.39032403  0.57772540  1
  Li  Li43  1  0.08219024  0.60967597  1.07772540  1
  Li  Li44  1  0.29623899  0.25000000  0.16555473  1
  Li  Li45  1  0.20376101  0.75000000  0.66555473  1
  Li  Li46  1  0.70376101  0.75000000  0.83444527  1
  Li  Li47  1  0.79623899  0.25000000  0.33444527  1
