# generated using pymatgen
data_LiF
_symmetry_space_group_name_H-M   'P 1'
_cell_length_a   8.50021727
_cell_length_b   6.42362712
_cell_length_c   10.37009828
_cell_angle_alpha   90.00000000
_cell_angle_beta   90.00000000
_cell_angle_gamma   90.00000000
_symmetry_Int_Tables_number   1
_chemical_formula_structural   LiF
_chemical_formula_sum   'Li24 F24'
_cell_volume   566.23045182
_cell_formula_units_Z   24
loop_
 _symmetry_equiv_pos_site_id
 _symmetry_equiv_pos_as_xyz
  1  'x, y, z'
loop_
 _atom_site_type_symbol
 _atom_site_label
 _atom_site_symmetry_multiplicity
 _atom_site_fract_x
 _atom_site_fract_y
 _atom_site_fract_z
 _atom_site_occupancy
  F  F0  1  0.71412330  0.01322996  0.65243441  1
  F  F1  1  0.78587670  0.98677004  0.15243441  1
  F  F2  1  0.28587670  0.51322996  0.34756559  1
  F  F3  1  0.21412330  0.48677004  0.84756559  1
  F  F4  1  0.28587670  0.98677004  0.34756559  1
  F  F5  1  0.21412330  0.01322996  0.84756559  1
  F  F6  1  0.71412330  0.48677004  0.65243441  1
  F  F7  1  0.78587670  0.51322996  0.15243441  1
  F  F8  1  0.87956736  0.25000000  0.40633385  1
  F  F9  1  0.62043264  0.75000000  0.90633385  1
  F  F10  1  0.12043264  0.75000000  0.59366615  1
  F  F11  1  0.37956736  0.25000000  0.09366615  1
  F  F12  1  0.67711080  0.11915203  0.54538393  1
  F  F13  1  0.82288920  0.88084797  0.04538393  1
  F  F14  1  0.32288920  0.61915203  0.45461607  1
  F  F15  1  0.17711080  0.38084797  0.95461607  1
  F  F16  1  0.32288920  0.88084797  0.45461607  1
  F  F17  1  0.17711080  0.11915203  0.95461607  1
  F  F18  1  0.67711080  0.38084797  0.54538393  1
  F  F19  1  0.82288920  0.61915203  0.04538393  1
  F  F20  1  0.02045387  0.25000000  0.52566649  1
  F  F21  1  0.47954613  0.75000000  0.02566649  1
  F  F22  1  0.97954613  0.75000000  0.47433351  1
  F  F23  1  0.52045387  0.25000000  0.97433351  1
  Li  Li24  1  0.49617143  0.14114437  0.10073842  1
  Li  Li25  1  0.00382857  -0.14114437  0.60073842  1
  Li  Li26  1  -0.49617143  0.64114437  -0.10073842  1
  Li  Li27  1  0.99617143  0.35885563  0.39926158  1
  Li  Li28  1  -0.49617143  -0.14114437  -0.10073842  1
  Li  Li29  1  0.99617143  0.14114437  0.39926158  1
  Li  Li30  1  0.49617143  0.35885563  0.10073842  1
  Li  Li31  1  0.00382857  0.64114437  0.60073842  1
  Li  Li32  1  0.00000000  0.00000000  0.00000000  1
  Li  Li33  1  0.50000000  0.00000000  0.50000000  1
  Li  Li34  1  0.00000000  0.50000000  -0.00000000  1
  Li  Li35  1  0.50000000  0.50000000  0.50000000  1
  Li  Li36  1  0.22020677  0.89585225  0.03673331  1
  Li  Li37  1  0.27979323  0.10414775  0.53673331  1
  Li  Li38  1  0.77979323  0.39585225  0.96326669  1
  Li  Li39  1  0.72020677  0.60414775  0.46326669  1
  Li  Li40  1  0.77979323  0.10414775  0.96326669  1
  Li  Li41  1  0.72020677  0.89585225  0.46326669  1
  Li  Li42  1  0.22020677  0.60414775  0.03673331  1
  Li  Li43  1  0.27979323  0.39585225  0.53673331  1
  Li  Li44  1  0.00000000  0.00000000  0.50000000  1
  Li  Li45  1  0.50000000  0.00000000  0.00000000  1
  Li  Li46  1  0.00000000  0.50000000  0.50000000  1
  Li  Li47  1  0.50000000  0.50000000  -0.00000000  1
