# generated using pymatgen
data_Li2Y2As3P3Se
_symmetry_space_group_name_H-M   'P 1'
_cell_length_a   4.38039880
_cell_length_b   4.57401217
_cell_length_c   6.91239015
_cell_angle_alpha   95.84558162
_cell_angle_beta   102.73046149
_cell_angle_gamma   113.47937807
_symmetry_Int_Tables_number   1
_chemical_formula_structural   Li2Y2As3P3Se
_chemical_formula_sum   'Li2 Y2 As3 P3 Se1'
_cell_volume   121.09110962
_cell_formula_units_Z   1
loop_
 _symmetry_equiv_pos_site_id
 _symmetry_equiv_pos_as_xyz
  1  'x, y, z'
loop_
 _atom_site_type_symbol
 _atom_site_label
 _atom_site_symmetry_multiplicity
 _atom_site_fract_x
 _atom_site_fract_y
 _atom_site_fract_z
 _atom_site_occupancy
  Se  Se0  1  0.12500000  0.00000000  0.25000000  1
  P  P1  1  0.00000000  0.00000000  0.00000000  1
  P  P2  1  0.37500000  0.00000000  0.25000000  1
  P  P3  1  0.25000000  0.25000000  0.25000000  1
  As  As4  1  0.00000000  0.25000000  0.12500000  1
  As  As5  1  0.99619963  0.72032815  0.91571025  1
  As  As6  1  0.98080798  0.65372943  0.81256758  1
  Li  Li7  1  0.20015967  0.28755432  0.58233272  1
  Li  Li8  1  0.18898915  0.95201858  0.71803834  1
  Y  Y9  1  0.99840224  0.65564397  0.99520674  1
  Y  Y10  1  0.05143944  0.65172049  0.70950376  1
