# generated using pymatgen
data_Li2Si4Te3F12
_symmetry_space_group_name_H-M   'P 1'
_cell_length_a   8.83946685
_cell_length_b   9.01654185
_cell_length_c   21.54110078
_cell_angle_alpha   90.00000000
_cell_angle_beta   90.00000000
_cell_angle_gamma   90.00000000
_symmetry_Int_Tables_number   1
_chemical_formula_structural   Li2Si4Te3F12
_chemical_formula_sum   'Li8 Si16 Te12 F48'
_cell_volume   1716.85638122
_cell_formula_units_Z   4
loop_
 _symmetry_equiv_pos_site_id
 _symmetry_equiv_pos_as_xyz
  1  'x, y, z'
loop_
 _atom_site_type_symbol
 _atom_site_label
 _atom_site_symmetry_multiplicity
 _atom_site_fract_x
 _atom_site_fract_y
 _atom_site_fract_z
 _atom_site_occupancy
  F  F0  1  0.11389965  0.74773861  0.85480914  1
  F  F1  1  0.88610035  0.25226139  0.85480914  1
  F  F2  1  0.38610035  0.24773861  0.14519086  1
  F  F3  1  0.61389965  0.75226139  0.14519086  1
  F  F4  1  0.88610035  0.25226139  0.14519086  1
  F  F5  1  0.11389965  0.74773861  0.14519086  1
  F  F6  1  0.61389965  0.75226139  0.85480914  1
  F  F7  1  0.38610035  0.24773861  0.85480914  1
  F  F8  1  0.63639779  0.91250674  0.84840637  1
  F  F9  1  0.36360221  0.08749326  0.84840637  1
  F  F10  1  0.86360221  0.41250674  0.15159363  1
  F  F11  1  0.13639779  0.58749326  0.15159363  1
  F  F12  1  0.36360221  0.08749326  0.15159363  1
  F  F13  1  0.63639779  0.91250674  0.15159363  1
  F  F14  1  0.13639779  0.58749326  0.84840637  1
  F  F15  1  0.86360221  0.41250674  0.84840637  1
  F  F16  1  0.23593257  0.34142668  0.54466183  1
  F  F17  1  0.76406743  0.65857332  0.54466183  1
  F  F18  1  0.26406743  0.84142668  0.45533817  1
  F  F19  1  0.73593257  0.15857332  0.45533817  1
  F  F20  1  0.76406743  0.65857332  0.45533817  1
  F  F21  1  0.23593257  0.34142668  0.45533817  1
  F  F22  1  0.73593257  0.15857332  0.54466183  1
  F  F23  1  0.26406743  0.84142668  0.54466183  1
  F  F24  1  0.89237947  0.69272721  0.45120513  1
  F  F25  1  0.10762053  0.30727279  0.45120513  1
  F  F26  1  0.60762053  0.19272721  0.54879487  1
  F  F27  1  0.39237947  0.80727279  0.54879487  1
  F  F28  1  0.10762053  0.30727279  0.54879487  1
  F  F29  1  0.89237947  0.69272721  0.54879487  1
  F  F30  1  0.39237947  0.80727279  0.45120513  1
  F  F31  1  0.60762053  0.19272721  0.45120513  1
  F  F32  1  0.00000000  0.50000000  0.50000000  1
  F  F33  1  0.50000000  0.00000000  0.50000000  1
  F  F34  1  0.42021382  0.04599054  0.16047609  1
  F  F35  1  0.57978618  0.95400946  0.16047609  1
  F  F36  1  0.07978618  0.54599054  0.83952391  1
  F  F37  1  0.92021382  0.45400946  0.83952391  1
  F  F38  1  0.57978618  0.95400946  0.83952391  1
  F  F39  1  0.42021382  0.04599054  0.83952391  1
  F  F40  1  0.92021382  0.45400946  0.16047609  1
  F  F41  1  0.07978618  0.54599054  0.16047609  1
  F  F42  1  0.00000000  0.50000000  0.93844836  1
  F  F43  1  0.50000000  0.00000000  0.06155164  1
  F  F44  1  0.00000000  0.50000000  0.06155164  1
  F  F45  1  0.50000000  0.00000000  0.93844836  1
  F  F46  1  0.00000000  0.00000000  0.00000000  1
  F  F47  1  0.50000000  0.50000000  -0.00000000  1
  Li  Li48  1  0.68968524  0.53231074  0.67296665  1
  Li  Li49  1  0.31031476  0.46768926  0.67296665  1
  Li  Li50  1  0.81031476  0.03231074  0.32703335  1
  Li  Li51  1  0.18968524  0.96768926  0.32703335  1
  Li  Li52  1  0.31031476  0.46768926  0.32703335  1
  Li  Li53  1  0.68968524  0.53231074  0.32703335  1
  Li  Li54  1  0.18968524  0.96768926  0.67296665  1
  Li  Li55  1  0.81031476  0.03231074  0.67296665  1
  Si  Si56  1  0.93593918  0.93868955  0.67267249  1
  Si  Si57  1  -0.93593918  -0.93868955  0.67267249  1
  Si  Si58  1  -0.43593918  1.43868955  -0.67267249  1
  Si  Si59  1  1.43593918  -0.43868955  -0.67267249  1
  Si  Si60  1  -0.93593918  -0.93868955  -0.67267249  1
  Si  Si61  1  0.93593918  0.93868955  -0.67267249  1
  Si  Si62  1  1.43593918  -0.43868955  0.67267249  1
  Si  Si63  1  -0.43593918  1.43868955  0.67267249  1
  Si  Si64  1  0.16511197  0.54829381  0.29037273  1
  Si  Si65  1  0.83488803  0.45170619  0.29037273  1
  Si  Si66  1  0.33488803  0.04829381  0.70962727  1
  Si  Si67  1  0.66511197  0.95170619  0.70962727  1
  Si  Si68  1  0.83488803  0.45170619  0.70962727  1
  Si  Si69  1  0.16511197  0.54829381  0.70962727  1
  Si  Si70  1  0.66511197  0.95170619  0.29037273  1
  Si  Si71  1  0.33488803  0.04829381  0.29037273  1
  Te  Te72  1  0.00000000  0.00000000  0.57551274  1
  Te  Te73  1  0.50000000  0.50000000  0.42448726  1
  Te  Te74  1  0.00000000  0.00000000  0.42448726  1
  Te  Te75  1  0.50000000  0.50000000  0.57551274  1
  Te  Te76  1  0.31629567  0.92463634  0.50000000  1
  Te  Te77  1  0.68370433  0.07536366  0.50000000  1
  Te  Te78  1  0.18370433  0.42463634  0.50000000  1
  Te  Te79  1  0.81629567  0.57536366  0.50000000  1
  Te  Te80  1  0.00000000  0.50000000  0.72146034  1
  Te  Te81  1  0.50000000  0.00000000  0.27853966  1
  Te  Te82  1  0.00000000  0.50000000  0.27853966  1
  Te  Te83  1  0.50000000  0.00000000  0.72146034  1
