# generated using pymatgen
data_LiF
_symmetry_space_group_name_H-M   'P 1'
_cell_length_a   20.89996238
_cell_length_b   20.89996238
_cell_length_c   2.96437208
_cell_angle_alpha   90.00000000
_cell_angle_beta   90.00000000
_cell_angle_gamma   120.00000000
_symmetry_Int_Tables_number   1
_chemical_formula_structural   LiF
_chemical_formula_sum   'Li45 F45'
_cell_volume   1121.38399804
_cell_formula_units_Z   45
loop_
 _symmetry_equiv_pos_site_id
 _symmetry_equiv_pos_as_xyz
  1  'x, y, z'
loop_
 _atom_site_type_symbol
 _atom_site_label
 _atom_site_symmetry_multiplicity
 _atom_site_fract_x
 _atom_site_fract_y
 _atom_site_fract_z
 _atom_site_occupancy
  F  F0  1  0.26035607  0.76635007  0.93227482  1
  F  F1  1  0.23364993  0.49400600  0.93227482  1
  F  F2  1  0.50599400  0.73964393  0.93227482  1
  F  F3  1  0.23364993  0.73964393  0.06772518  1
  F  F4  1  0.50599400  0.76635007  0.06772518  1
  F  F5  1  0.26035607  0.49400600  0.06772518  1
  F  F6  1  0.70301760  0.19554313  0.85697571  1
  F  F7  1  0.80445687  0.50747447  0.85697571  1
  F  F8  1  0.49252553  0.29698240  0.85697571  1
  F  F9  1  0.80445687  0.29698240  0.14302429  1
  F  F10  1  0.49252553  0.19554313  0.14302429  1
  F  F11  1  0.70301760  0.50747447  0.14302429  1
  F  F12  1  0.66666667  0.33333333  0.61738379  1
  F  F13  1  0.66666667  0.33333333  0.38261621  1
  F  F14  1  0.01200514  0.18216166  0.54886071  1
  F  F15  1  0.81783834  0.82984348  0.54886071  1
  F  F16  1  0.17015652  0.98799486  0.54886071  1
  F  F17  1  0.81783834  0.98799486  0.45113929  1
  F  F18  1  0.17015652  0.18216166  0.45113929  1
  F  F19  1  0.01200514  0.82984348  0.45113929  1
  F  F20  1  0.33333333  0.66666667  -0.00000000  1
  F  F21  1  0.35195828  0.64804172  -0.00000000  1
  F  F22  1  0.35195828  0.70391656  0.00000000  1
  F  F23  1  0.29608344  0.64804172  0.00000000  1
  F  F24  1  0.98818410  0.81585185  0.83534699  1
  F  F25  1  0.18414815  0.17233225  0.83534699  1
  F  F26  1  0.82766775  0.01181590  0.83534699  1
  F  F27  1  0.18414815  0.01181590  0.16465301  1
  F  F28  1  0.82766775  0.81585185  0.16465301  1
  F  F29  1  0.98818410  0.17233225  0.16465301  1
  F  F30  1  0.62826119  0.37173881  -0.00000000  1
  F  F31  1  0.62826119  0.25652239  -0.00000000  1
  F  F32  1  0.74347761  0.37173881  -0.00000000  1
  F  F33  1  0.00107425  0.37681730  0.23946361  1
  F  F34  1  0.62318270  0.62425696  0.23946361  1
  F  F35  1  0.37574304  0.99892575  0.23946361  1
  F  F36  1  0.62318270  0.99892575  0.76053639  1
  F  F37  1  0.37574304  0.37681730  0.76053639  1
  F  F38  1  0.00107425  0.62425696  0.76053639  1
  F  F39  1  0.48697357  0.93612438  0.17375570  1
  F  F40  1  0.06387562  0.55084919  0.17375570  1
  F  F41  1  0.44915081  0.51302643  0.17375570  1
  F  F42  1  0.06387562  0.51302643  0.82624430  1
  F  F43  1  0.44915081  0.93612438  0.82624430  1
  F  F44  1  0.48697357  0.55084919  0.82624430  1
  Li  Li45  1  0.65108579  0.92751384  0.99977877  1
  Li  Li46  1  -0.92751384  -0.27642805  0.99977877  1
  Li  Li47  1  0.27642805  -0.65108579  0.99977877  1
  Li  Li48  1  -0.92751384  -0.65108579  -0.99977877  1
  Li  Li49  1  0.27642805  0.92751384  -0.99977877  1
  Li  Li50  1  0.65108579  -0.27642805  -0.99977877  1
  Li  Li51  1  0.01617192  0.57125863  0.58711697  1
  Li  Li52  1  0.42874137  0.44491329  0.58711697  1
  Li  Li53  1  0.55508671  0.98382808  0.58711697  1
  Li  Li54  1  0.42874137  0.98382808  0.41288303  1
  Li  Li55  1  0.55508671  0.57125863  0.41288303  1
  Li  Li56  1  0.01617192  0.44491329  0.41288303  1
  Li  Li57  1  0.00000000  0.00000000  0.50000000  1
  Li  Li58  1  0.31667976  0.17532624  0.77012166  1
  Li  Li59  1  0.82467376  0.14135353  0.77012166  1
  Li  Li60  1  0.85864647  0.68332024  0.77012166  1
  Li  Li61  1  0.82467376  0.68332024  0.22987834  1
  Li  Li62  1  0.85864647  0.17532624  0.22987834  1
  Li  Li63  1  0.31667976  0.14135353  0.22987834  1
  Li  Li64  1  0.54453854  0.45546146  -0.00000000  1
  Li  Li65  1  0.54453854  0.08907708  0.00000000  1
  Li  Li66  1  0.91092292  0.45546146  -0.00000000  1
  Li  Li67  1  0.74238170  0.17353412  0.31624842  1
  Li  Li68  1  0.82646588  0.56884758  0.31624842  1
  Li  Li69  1  0.43115242  0.25761830  0.31624842  1
  Li  Li70  1  0.82646588  0.25761830  0.68375158  1
  Li  Li71  1  0.43115242  0.17353412  0.68375158  1
  Li  Li72  1  0.74238170  0.56884758  0.68375158  1
  Li  Li73  1  0.33333333  0.66666667  0.50000000  1
  Li  Li74  1  0.00000000  0.00000000  0.00000000  1
  Li  Li75  1  0.03758704  0.96241296  0.50000000  1
  Li  Li76  1  0.03758704  0.07517408  0.50000000  1
  Li  Li77  1  0.92482592  0.96241296  0.50000000  1
  Li  Li78  1  0.72357497  0.27642503  -0.00000000  1
  Li  Li79  1  0.72357497  0.44714994  0.00000000  1
  Li  Li80  1  0.55285006  0.27642503  0.00000000  1
  Li  Li81  1  0.90140450  0.54632518  0.20699194  1
  Li  Li82  1  0.45367482  0.35507932  0.20699194  1
  Li  Li83  1  0.64492068  0.09859550  0.20699194  1
  Li  Li84  1  0.45367482  0.09859550  0.79300806  1
  Li  Li85  1  0.64492068  0.54632518  0.79300806  1
  Li  Li86  1  0.90140450  0.35507932  0.79300806  1
  Li  Li87  1  0.53924508  0.46075492  0.50000000  1
  Li  Li88  1  0.53924508  0.07849015  0.50000000  1
  Li  Li89  1  0.92150985  0.46075492  0.50000000  1
