# generated using pymatgen
data_LiF
_symmetry_space_group_name_H-M   'P 1'
_cell_length_a   5.60169064
_cell_length_b   5.69520843
_cell_length_c   5.73670420
_cell_angle_alpha   90.00000000
_cell_angle_beta   90.00000000
_cell_angle_gamma   90.00000000
_symmetry_Int_Tables_number   1
_chemical_formula_structural   LiF
_chemical_formula_sum   'Li8 F8'
_cell_volume   183.01690226
_cell_formula_units_Z   8
loop_
 _symmetry_equiv_pos_site_id
 _symmetry_equiv_pos_as_xyz
  1  'x, y, z'
loop_
 _atom_site_type_symbol
 _atom_site_label
 _atom_site_symmetry_multiplicity
 _atom_site_fract_x
 _atom_site_fract_y
 _atom_site_fract_z
 _atom_site_occupancy
  F  F0  1  0.33315207  0.62471541  0.00000000  1
  F  F1  1  -0.33315207  -0.62471541  0.00000000  1
  F  F2  1  0.16684793  1.12471541  0.50000000  1
  F  F3  1  0.83315207  -0.12471541  0.50000000  1
  F  F4  1  0.00000000  0.50000000  0.58697251  1
  F  F5  1  0.50000000  -0.00000000  0.91302749  1
  F  F6  1  0.00000000  0.50000000  0.41302749  1
  F  F7  1  0.50000000  -0.00000000  0.08697251  1
  Li  Li8  1  0.00000000  0.50000000  0.23382318  1
  Li  Li9  1  0.50000000  -0.00000000  0.26617682  1
  Li  Li10  1  0.00000000  0.50000000  0.76617682  1
  Li  Li11  1  0.50000000  -0.00000000  0.73382318  1
  Li  Li12  1  0.00000000  0.00000000  0.00000000  1
  Li  Li13  1  0.50000000  0.50000000  0.50000000  1
  Li  Li14  1  0.00000000  0.50000000  0.00000000  1
  Li  Li15  1  0.50000000  -0.00000000  0.50000000  1
