# generated using pymatgen
data_LiF
_symmetry_space_group_name_H-M   'P 1'
_cell_length_a   8.02763216
_cell_length_b   2.92080279
_cell_length_c   9.25818920
_cell_angle_alpha   90.00000000
_cell_angle_beta   90.00000000
_cell_angle_gamma   90.00000000
_symmetry_Int_Tables_number   1
_chemical_formula_structural   LiF
_chemical_formula_sum   'Li10 F10'
_cell_volume   217.07796918
_cell_formula_units_Z   10
loop_
 _symmetry_equiv_pos_site_id
 _symmetry_equiv_pos_as_xyz
  1  'x, y, z'
loop_
 _atom_site_type_symbol
 _atom_site_label
 _atom_site_symmetry_multiplicity
 _atom_site_fract_x
 _atom_site_fract_y
 _atom_site_fract_z
 _atom_site_occupancy
  F  F0  1  0.00000000  0.50000000  0.85694023  1
  F  F1  1  0.50000000  0.00000000  0.14305977  1
  F  F2  1  0.00000000  0.50000000  0.14305977  1
  F  F3  1  0.50000000  0.00000000  0.85694023  1
  F  F4  1  0.17798617  0.41100037  0.50000000  1
  F  F5  1  0.82201383  0.58899963  0.50000000  1
  F  F6  1  0.32201383  0.91100037  0.50000000  1
  F  F7  1  0.67798617  0.08899963  0.50000000  1
  F  F8  1  0.00000000  0.00000000  0.50000000  1
  F  F9  1  0.50000000  0.50000000  0.50000000  1
  Li  Li10  1  0.22630078  0.88577656  0.85845571  1
  Li  Li11  1  -0.22630078  -0.88577656  0.85845571  1
  Li  Li12  1  0.27369922  1.38577656  -0.85845571  1
  Li  Li13  1  0.72630078  -0.38577656  -0.85845571  1
  Li  Li14  1  -0.22630078  -0.88577656  -0.85845571  1
  Li  Li15  1  0.22630078  0.88577656  -0.85845571  1
  Li  Li16  1  0.72630078  -0.38577656  0.85845571  1
  Li  Li17  1  0.27369922  1.38577656  0.85845571  1
  Li  Li18  1  0.00000000  0.50000000  0.00000000  1
  Li  Li19  1  0.50000000  0.00000000  0.00000000  1
