# generated using pymatgen
data_LiY2Mo(PSe)2
_symmetry_space_group_name_H-M   'P 1'
_cell_length_a   5.89621578
_cell_length_b   6.19651371
_cell_length_c   7.38062201
_cell_angle_alpha   93.11674412
_cell_angle_beta   96.27566993
_cell_angle_gamma   101.71584805
_symmetry_Int_Tables_number   1
_chemical_formula_structural   LiY2Mo(PSe)2
_chemical_formula_sum   'Li1 Y2 Mo1 P2 Se2'
_cell_volume   261.64473508
_cell_formula_units_Z   1
loop_
 _symmetry_equiv_pos_site_id
 _symmetry_equiv_pos_as_xyz
  1  'x, y, z'
loop_
 _atom_site_type_symbol
 _atom_site_label
 _atom_site_symmetry_multiplicity
 _atom_site_fract_x
 _atom_site_fract_y
 _atom_site_fract_z
 _atom_site_occupancy
  Se  Se0  1  0.00000000  0.00000000  0.00000000  1
  Se  Se1  1  0.50000000  0.50000000  0.50000000  1
  Y  Y2  1  0.25000000  0.25000000  0.25000000  1
  Y  Y3  1  0.75000000  0.25000000  0.00000000  1
  P  P4  1  0.25000000  0.75000000  0.50000000  1
  P  P5  1  0.89635326  0.85076305  0.76659877  1
  Mo  Mo6  1  0.58233236  0.61405904  0.33315576  1
  Li  Li7  1  0.96263004  0.49876845  0.64901108  1
