# generated using pymatgen
data_LiF
_symmetry_space_group_name_H-M   'P 1'
_cell_length_a   14.40738902
_cell_length_b   4.17724609
_cell_length_c   12.24946472
_cell_angle_alpha   90.00000000
_cell_angle_beta   90.00000000
_cell_angle_gamma   90.00000000
_symmetry_Int_Tables_number   1
_chemical_formula_structural   LiF
_chemical_formula_sum   'Li24 F24'
_cell_volume   737.21210137
_cell_formula_units_Z   24
loop_
 _symmetry_equiv_pos_site_id
 _symmetry_equiv_pos_as_xyz
  1  'x, y, z'
loop_
 _atom_site_type_symbol
 _atom_site_label
 _atom_site_symmetry_multiplicity
 _atom_site_fract_x
 _atom_site_fract_y
 _atom_site_fract_z
 _atom_site_occupancy
  F  F0  1  0.67902797  0.25000000  0.63298321  1
  F  F1  1  0.82097203  0.75000000  0.13298321  1
  F  F2  1  0.32097203  0.75000000  0.36701679  1
  F  F3  1  0.17902797  0.25000000  0.86701679  1
  F  F4  1  0.54804542  0.25000000  0.80254632  1
  F  F5  1  0.95195458  0.75000000  0.30254632  1
  F  F6  1  0.45195458  0.75000000  0.19745368  1
  F  F7  1  0.04804542  0.25000000  0.69745368  1
  F  F8  1  0.06431922  0.11430441  0.15920525  1
  F  F9  1  0.43568078  0.88569559  0.65920525  1
  F  F10  1  0.93568078  0.61430441  0.84079475  1
  F  F11  1  0.56431922  0.38569559  0.34079475  1
  F  F12  1  0.93568078  0.88569559  0.84079475  1
  F  F13  1  0.56431922  0.11430441  0.34079475  1
  F  F14  1  0.06431922  0.38569559  0.15920525  1
  F  F15  1  0.43568078  0.61430441  0.65920525  1
  F  F16  1  0.19288769  0.17517856  0.44759985  1
  F  F17  1  0.30711231  0.82482144  0.94759985  1
  F  F18  1  0.80711231  0.67517856  0.55240015  1
  F  F19  1  0.69288769  0.32482144  0.05240015  1
  F  F20  1  0.80711231  0.82482144  0.55240015  1
  F  F21  1  0.69288769  0.17517856  0.05240015  1
  F  F22  1  0.19288769  0.32482144  0.44759985  1
  F  F23  1  0.30711231  0.67517856  0.94759985  1
  Li  Li24  1  0.75446202  0.46395844  0.88916257  1
  Li  Li25  1  -0.25446202  -0.46395844  1.38916257  1
  Li  Li26  1  -0.75446202  0.96395844  -0.88916257  1
  Li  Li27  1  1.25446202  0.03604156  -0.38916257  1
  Li  Li28  1  -0.75446202  -0.46395844  -0.88916257  1
  Li  Li29  1  1.25446202  0.46395844  -0.38916257  1
  Li  Li30  1  0.75446202  0.03604156  0.88916257  1
  Li  Li31  1  -0.25446202  0.96395844  1.38916257  1
  Li  Li32  1  0.28514512  0.25000000  0.88526442  1
  Li  Li33  1  0.21485488  0.75000000  0.38526442  1
  Li  Li34  1  0.71485488  0.75000000  0.11473558  1
  Li  Li35  1  0.78514512  0.25000000  0.61473558  1
  Li  Li36  1  0.48030439  0.25000000  0.77316787  1
  Li  Li37  1  0.01969561  0.75000000  0.27316787  1
  Li  Li38  1  0.51969561  0.75000000  0.22683213  1
  Li  Li39  1  0.98030439  0.25000000  0.72683213  1
  Li  Li40  1  0.00000000  0.00000000  0.00000000  1
  Li  Li41  1  0.50000000  0.00000000  0.50000000  1
  Li  Li42  1  0.00000000  0.50000000  0.00000000  1
  Li  Li43  1  0.50000000  0.50000000  0.50000000  1
  Li  Li44  1  0.00000000  0.00000000  0.50000000  1
  Li  Li45  1  0.50000000  0.00000000  0.00000000  1
  Li  Li46  1  0.00000000  0.50000000  0.50000000  1
  Li  Li47  1  0.50000000  0.50000000  0.00000000  1
