# generated using pymatgen
data_Li2Y2Sb2MoP2
_symmetry_space_group_name_H-M   'P 1'
_cell_length_a   4.93424863
_cell_length_b   5.02957875
_cell_length_c   7.09888925
_cell_angle_alpha   94.90701870
_cell_angle_beta   100.68646658
_cell_angle_gamma   109.70954386
_symmetry_Int_Tables_number   1
_chemical_formula_structural   Li2Y2Sb2MoP2
_chemical_formula_sum   'Li2 Y2 Sb2 Mo1 P2'
_cell_volume   160.87531842
_cell_formula_units_Z   1
loop_
 _symmetry_equiv_pos_site_id
 _symmetry_equiv_pos_as_xyz
  1  'x, y, z'
loop_
 _atom_site_type_symbol
 _atom_site_label
 _atom_site_symmetry_multiplicity
 _atom_site_fract_x
 _atom_site_fract_y
 _atom_site_fract_z
 _atom_site_occupancy
  Y  Y0  1  0.00000000  0.00000000  0.00000000  1
  Y  Y1  1  0.50000000  0.50000000  0.50000000  1
  P  P2  1  0.50000000  0.50000000  0.00000000  1
  P  P3  1  0.50000000  0.00000000  0.50000000  1
  Mo  Mo4  1  0.00000000  0.50000000  0.50000000  1
  Li  Li5  1  0.80141445  0.91485780  0.43317426  1
  Li  Li6  1  0.07638130  0.67525812  0.78566365  1
  Sb  Sb7  1  0.56466000  0.35295564  0.00901696  1
  Sb  Sb8  1  0.14514661  0.68985853  0.78912436  1
