# generated using pymatgen
data_LiF
_symmetry_space_group_name_H-M   'P 1'
_cell_length_a   6.58725083
_cell_length_b   5.28779394
_cell_length_c   5.05854871
_cell_angle_alpha   90.00000000
_cell_angle_beta   90.00000000
_cell_angle_gamma   90.00000000
_symmetry_Int_Tables_number   1
_chemical_formula_structural   LiF
_chemical_formula_sum   'Li8 F8'
_cell_volume   176.19949485
_cell_formula_units_Z   8
loop_
 _symmetry_equiv_pos_site_id
 _symmetry_equiv_pos_as_xyz
  1  'x, y, z'
loop_
 _atom_site_type_symbol
 _atom_site_label
 _atom_site_symmetry_multiplicity
 _atom_site_fract_x
 _atom_site_fract_y
 _atom_site_fract_z
 _atom_site_occupancy
  F  F0  1  0.86654893  0.15394994  -0.00000000  1
  F  F1  1  0.13345107  0.84605006  0.00000000  1
  F  F2  1  0.63345107  0.65394994  0.50000000  1
  F  F3  1  0.36654893  0.34605006  0.50000000  1
  F  F4  1  0.00000000  0.50000000  0.68307201  1
  F  F5  1  0.50000000  0.00000000  0.81692799  1
  F  F6  1  0.00000000  0.50000000  0.31692799  1
  F  F7  1  0.50000000  0.00000000  0.18307201  1
  Li  Li8  1  0.40797053  0.37635756  0.85981798  1
  Li  Li9  1  -0.40797053  -0.37635756  0.85981798  1
  Li  Li10  1  0.09202947  0.87635756  -0.35981798  1
  Li  Li11  1  0.90797053  0.12364244  -0.35981798  1
  Li  Li12  1  -0.40797053  -0.37635756  -0.85981798  1
  Li  Li13  1  0.40797053  0.37635756  -0.85981798  1
  Li  Li14  1  0.90797053  0.12364244  1.35981798  1
  Li  Li15  1  0.09202947  0.87635756  1.35981798  1
