# generated using pymatgen
data_LiF
_symmetry_space_group_name_H-M   'P 1'
_cell_length_a   10.21271882
_cell_length_b   10.21271882
_cell_length_c   7.09539085
_cell_angle_alpha   90.00000000
_cell_angle_beta   90.00000000
_cell_angle_gamma   120.00000000
_symmetry_Int_Tables_number   1
_chemical_formula_structural   LiF
_chemical_formula_sum   'Li42 F42'
_cell_volume   640.89916342
_cell_formula_units_Z   42
loop_
 _symmetry_equiv_pos_site_id
 _symmetry_equiv_pos_as_xyz
  1  'x, y, z'
loop_
 _atom_site_type_symbol
 _atom_site_label
 _atom_site_symmetry_multiplicity
 _atom_site_fract_x
 _atom_site_fract_y
 _atom_site_fract_z
 _atom_site_occupancy
  F  F0  1  0.49320780  0.59148709  0.08479053  1
  F  F1  1  0.40851291  0.90172071  0.08479053  1
  F  F2  1  0.09827929  0.50679220  0.08479053  1
  F  F3  1  0.40851291  0.50679220  0.91520947  1
  F  F4  1  0.09827929  0.59148709  0.91520947  1
  F  F5  1  0.49320780  0.90172071  0.91520947  1
  F  F6  1  0.11610598  0.06695096  0.67428203  1
  F  F7  1  0.93304904  0.04915503  0.67428203  1
  F  F8  1  0.95084497  0.88389402  0.67428203  1
  F  F9  1  0.93304904  0.88389402  0.32571797  1
  F  F10  1  0.95084497  0.06695096  0.32571797  1
  F  F11  1  0.11610598  0.04915503  0.32571797  1
  F  F12  1  0.38548356  0.79646854  0.69708959  1
  F  F13  1  0.20353146  0.58901502  0.69708959  1
  F  F14  1  0.41098498  0.61451644  0.69708959  1
  F  F15  1  0.20353146  0.61451644  0.30291041  1
  F  F16  1  0.41098498  0.79646854  0.30291041  1
  F  F17  1  0.38548356  0.58901502  0.30291041  1
  F  F18  1  0.98697045  0.76325251  0.09342146  1
  F  F19  1  0.23674749  0.22371794  0.09342146  1
  F  F20  1  0.77628206  0.01302955  0.09342146  1
  F  F21  1  0.23674749  0.01302955  0.90657854  1
  F  F22  1  0.77628206  0.76325251  0.90657854  1
  F  F23  1  0.98697045  0.22371794  0.90657854  1
  F  F24  1  0.33333333  0.66666667  0.68855239  1
  F  F25  1  0.33333333  0.66666667  0.31144761  1
  F  F26  1  0.00000000  0.00000000  0.50000000  1
  F  F27  1  0.52601223  0.72371724  0.83420010  1
  F  F28  1  0.27628276  0.80229499  0.83420010  1
  F  F29  1  0.19770501  0.47398777  0.83420010  1
  F  F30  1  0.27628276  0.47398777  0.16579990  1
  F  F31  1  0.19770501  0.72371724  0.16579990  1
  F  F32  1  0.52601223  0.80229499  0.16579990  1
  F  F33  1  0.90326531  0.36094435  0.55565852  1
  F  F34  1  0.63905565  0.54232096  0.55565852  1
  F  F35  1  0.45767904  0.09673469  0.55565852  1
  F  F36  1  0.63905565  0.09673469  0.44434148  1
  F  F37  1  0.45767904  0.36094435  0.44434148  1
  F  F38  1  0.90326531  0.54232096  0.44434148  1
  F  F39  1  0.47056159  0.52943841  0.50000000  1
  F  F40  1  0.47056159  0.94112318  0.50000000  1
  F  F41  1  0.05887682  0.52943841  0.50000000  1
  Li  Li42  1  0.33333333  0.66666667  0.00000000  1
  Li  Li43  1  0.55361694  0.35288874  0.19733623  1
  Li  Li44  1  -0.35288874  0.20072820  0.19733623  1
  Li  Li45  1  -0.20072820  -0.55361694  0.19733623  1
  Li  Li46  1  -0.35288874  -0.55361694  -0.19733623  1
  Li  Li47  1  -0.20072820  0.35288874  -0.19733623  1
  Li  Li48  1  0.55361694  0.20072820  -0.19733623  1
  Li  Li49  1  0.19414373  0.60823247  0.85584356  1
  Li  Li50  1  0.39176753  0.58591126  0.85584356  1
  Li  Li51  1  0.41408874  0.80585627  0.85584356  1
  Li  Li52  1  0.39176753  0.80585627  0.14415644  1
  Li  Li53  1  0.41408874  0.60823247  0.14415644  1
  Li  Li54  1  0.19414373  0.58591126  0.14415644  1
  Li  Li55  1  0.18541066  0.23860468  0.71615237  1
  Li  Li56  1  0.76139532  0.94680598  0.71615237  1
  Li  Li57  1  0.05319402  0.81458934  0.71615237  1
  Li  Li58  1  0.76139532  0.81458934  0.28384763  1
  Li  Li59  1  0.05319402  0.23860468  0.28384763  1
  Li  Li60  1  0.18541066  0.94680598  0.28384763  1
  Li  Li61  1  0.80096996  0.34921517  0.61280421  1
  Li  Li62  1  0.65078483  0.45175478  0.61280421  1
  Li  Li63  1  0.54824522  0.19903004  0.61280421  1
  Li  Li64  1  0.65078483  0.19903004  0.38719579  1
  Li  Li65  1  0.54824522  0.34921517  0.38719579  1
  Li  Li66  1  0.80096996  0.45175478  0.38719579  1
  Li  Li67  1  0.25517616  0.24626384  0.93914782  1
  Li  Li68  1  0.75373616  0.00891232  0.93914782  1
  Li  Li69  1  0.99108768  0.74482384  0.93914782  1
  Li  Li70  1  0.75373616  0.74482384  0.06085218  1
  Li  Li71  1  0.99108768  0.24626384  0.06085218  1
  Li  Li72  1  0.25517616  0.00891232  0.06085218  1
  Li  Li73  1  0.66666667  0.33333333  0.00000000  1
  Li  Li74  1  0.93884374  0.52490154  0.84335816  1
  Li  Li75  1  0.47509846  0.41394220  0.84335816  1
  Li  Li76  1  0.58605780  0.06115626  0.84335816  1
  Li  Li77  1  0.47509846  0.06115626  0.15664184  1
  Li  Li78  1  0.58605780  0.52490154  0.15664184  1
  Li  Li79  1  0.93884374  0.41394220  0.15664184  1
  Li  Li80  1  0.92815128  0.07184872  0.50000000  1
  Li  Li81  1  0.92815128  0.85630256  0.50000000  1
  Li  Li82  1  0.14369744  0.07184872  0.50000000  1
  Li  Li83  1  0.33333333  0.66666667  0.50000000  1
