# generated using pymatgen
data_LiF
_symmetry_space_group_name_H-M   'P 1'
_cell_length_a   5.67847989
_cell_length_b   7.33521243
_cell_length_c   13.57281650
_cell_angle_alpha   90.00000000
_cell_angle_beta   90.00000000
_cell_angle_gamma   90.00000000
_symmetry_Int_Tables_number   1
_chemical_formula_structural   LiF
_chemical_formula_sum   'Li22 F22'
_cell_volume   565.34657506
_cell_formula_units_Z   22
loop_
 _symmetry_equiv_pos_site_id
 _symmetry_equiv_pos_as_xyz
  1  'x, y, z'
loop_
 _atom_site_type_symbol
 _atom_site_label
 _atom_site_symmetry_multiplicity
 _atom_site_fract_x
 _atom_site_fract_y
 _atom_site_fract_z
 _atom_site_occupancy
  F  F0  1  0.00000000  0.00000000  0.50000000  1
  F  F1  1  0.50000000  0.50000000  0.50000000  1
  F  F2  1  0.83989759  0.56680348  0.61408205  1
  F  F3  1  -0.83989759  -0.56680348  0.61408205  1
  F  F4  1  -0.33989759  1.06680348  -0.61408205  1
  F  F5  1  1.33989759  -0.06680348  -0.61408205  1
  F  F6  1  -0.83989759  -0.56680348  -0.61408205  1
  F  F7  1  0.83989759  0.56680348  -0.61408205  1
  F  F8  1  1.33989759  -0.06680348  0.61408205  1
  F  F9  1  -0.33989759  1.06680348  0.61408205  1
  F  F10  1  0.51092149  0.95769421  0.88603601  1
  F  F11  1  0.48907851  0.04230579  0.88603601  1
  F  F12  1  0.98907851  0.45769421  0.11396399  1
  F  F13  1  0.01092149  0.54230579  0.11396399  1
  F  F14  1  0.48907851  0.04230579  0.11396399  1
  F  F15  1  0.51092149  0.95769421  0.11396399  1
  F  F16  1  0.01092149  0.54230579  0.88603601  1
  F  F17  1  0.98907851  0.45769421  0.88603601  1
  F  F18  1  0.01876494  0.88623011  0.00000000  1
  F  F19  1  0.98123506  0.11376989  0.00000000  1
  F  F20  1  0.48123506  0.38623011  0.00000000  1
  F  F21  1  0.51876494  0.61376989  0.00000000  1
  Li  Li22  1  0.87086825  0.05674047  0.21530441  1
  Li  Li23  1  0.12913175  0.94325953  0.21530441  1
  Li  Li24  1  0.62913175  0.55674047  0.78469559  1
  Li  Li25  1  0.37086825  0.44325953  0.78469559  1
  Li  Li26  1  0.12913175  0.94325953  0.78469559  1
  Li  Li27  1  0.87086825  0.05674047  0.78469559  1
  Li  Li28  1  0.37086825  0.44325953  0.21530441  1
  Li  Li29  1  0.62913175  0.55674047  0.21530441  1
  Li  Li30  1  0.57425302  0.24974651  0.00000000  1
  Li  Li31  1  0.42574698  0.75025349  0.00000000  1
  Li  Li32  1  0.92574698  0.74974651  0.00000000  1
  Li  Li33  1  0.07425302  0.25025349  0.00000000  1
  Li  Li34  1  0.00000000  0.00000000  0.87925352  1
  Li  Li35  1  0.50000000  0.50000000  0.12074648  1
  Li  Li36  1  0.00000000  0.00000000  0.12074648  1
  Li  Li37  1  0.50000000  0.50000000  0.87925352  1
  Li  Li38  1  0.45465034  0.15646584  0.50000000  1
  Li  Li39  1  0.54534966  0.84353416  0.50000000  1
  Li  Li40  1  0.04534966  0.65646584  0.50000000  1
  Li  Li41  1  0.95465034  0.34353416  0.50000000  1
  Li  Li42  1  0.00000000  0.50000000  0.00000000  1
  Li  Li43  1  0.50000000  0.00000000  0.00000000  1
