# generated using pymatgen
data_Li2YP3Se
_symmetry_space_group_name_H-M   'P 1'
_cell_length_a   4.79480855
_cell_length_b   4.92972858
_cell_length_c   6.87716917
_cell_angle_alpha   95.51176436
_cell_angle_beta   100.74142395
_cell_angle_gamma   108.86674075
_symmetry_Int_Tables_number   1
_chemical_formula_structural   Li2YP3Se
_chemical_formula_sum   'Li2 Y1 P3 Se1'
_cell_volume   148.97592245
_cell_formula_units_Z   1
loop_
 _symmetry_equiv_pos_site_id
 _symmetry_equiv_pos_as_xyz
  1  'x, y, z'
loop_
 _atom_site_type_symbol
 _atom_site_label
 _atom_site_symmetry_multiplicity
 _atom_site_fract_x
 _atom_site_fract_y
 _atom_site_fract_z
 _atom_site_occupancy
  Se  Se0  1  0.00000000  0.00000000  0.00000000  1
  P  P1  1  0.33300000  0.66700000  0.25000000  1
  P  P2  1  0.66700000  0.33300000  0.50000000  1
  P  P3  1  0.00000000  0.00000000  0.75000000  1
  Li  Li4  1  0.86088032  0.66476701  0.48896144  1
  Li  Li5  1  0.67204879  0.19538581  0.30109799  1
  Y  Y6  1  0.95939044  0.15345408  0.36270175  1
