# generated using pymatgen
data_Li2Y2As3P2Se
_symmetry_space_group_name_H-M   'P 1'
_cell_length_a   4.76844778
_cell_length_b   4.81533836
_cell_length_c   6.90043258
_cell_angle_alpha   95.14393429
_cell_angle_beta   101.20241948
_cell_angle_gamma   110.66113963
_symmetry_Int_Tables_number   1
_chemical_formula_structural   Li2Y2As3P2Se
_chemical_formula_sum   'Li2 Y2 As3 P2 Se1'
_cell_volume   143.25358968
_cell_formula_units_Z   1
loop_
 _symmetry_equiv_pos_site_id
 _symmetry_equiv_pos_as_xyz
  1  'x, y, z'
loop_
 _atom_site_type_symbol
 _atom_site_label
 _atom_site_symmetry_multiplicity
 _atom_site_fract_x
 _atom_site_fract_y
 _atom_site_fract_z
 _atom_site_occupancy
  Se  Se0  1  0.12500000  0.00000000  0.25000000  1
  P  P1  1  0.00000000  0.00000000  0.00000000  1
  P  P2  1  0.37500000  0.00000000  0.25000000  1
  As  As3  1  0.25000000  0.25000000  0.25000000  1
  As  As4  1  0.00000000  0.25000000  0.12500000  1
  As  As5  1  0.80115538  0.53053121  0.34918708  1
  Li  Li6  1  0.56525021  0.86917693  0.69607658  1
  Li  Li7  1  0.25250193  0.97744488  0.23112721  1
  Y  Y8  1  0.15185597  0.59877007  0.24502896  1
  Y  Y9  1  0.27508793  0.33092074  0.92599511  1
