# generated using pymatgen
data_LiF
_symmetry_space_group_name_H-M   'P 1'
_cell_length_a   7.66775985
_cell_length_b   6.89400991
_cell_length_c   4.95865871
_cell_angle_alpha   90.00000000
_cell_angle_beta   90.00000000
_cell_angle_gamma   90.00000000
_symmetry_Int_Tables_number   1
_chemical_formula_structural   LiF
_chemical_formula_sum   'Li12 F12'
_cell_volume   262.12269463
_cell_formula_units_Z   12
loop_
 _symmetry_equiv_pos_site_id
 _symmetry_equiv_pos_as_xyz
  1  'x, y, z'
loop_
 _atom_site_type_symbol
 _atom_site_label
 _atom_site_symmetry_multiplicity
 _atom_site_fract_x
 _atom_site_fract_y
 _atom_site_fract_z
 _atom_site_occupancy
  F  F0  1  0.02686097  0.23309172  0.50000000  1
  F  F1  1  0.97313903  0.76690828  0.50000000  1
  F  F2  1  0.47313903  0.73309172  0.50000000  1
  F  F3  1  0.52686097  0.26690828  0.50000000  1
  F  F4  1  0.63357838  0.55460581  0.72952698  1
  F  F5  1  -0.63357838  -0.55460581  0.72952698  1
  F  F6  1  -0.13357838  1.05460581  -0.72952698  1
  F  F7  1  1.13357838  -0.05460581  -0.72952698  1
  F  F8  1  -0.63357838  -0.55460581  -0.72952698  1
  F  F9  1  0.63357838  0.55460581  -0.72952698  1
  F  F10  1  1.13357838  -0.05460581  0.72952698  1
  F  F11  1  -0.13357838  1.05460581  0.72952698  1
  Li  Li12  1  0.18090937  0.31498340  -0.00000000  1
  Li  Li13  1  0.81909063  0.68501660  -0.00000000  1
  Li  Li14  1  0.31909063  0.81498340  -0.00000000  1
  Li  Li15  1  0.68090937  0.18501660  -0.00000000  1
  Li  Li16  1  0.00000000  0.50000000  -0.00000000  1
  Li  Li17  1  0.50000000  0.00000000  -0.00000000  1
  Li  Li18  1  0.00000000  0.50000000  0.50000000  1
  Li  Li19  1  0.50000000  0.00000000  0.50000000  1
  Li  Li20  1  0.16328414  0.22647060  0.50000000  1
  Li  Li21  1  0.83671586  0.77352940  0.50000000  1
  Li  Li22  1  0.33671586  0.72647060  0.50000000  1
  Li  Li23  1  0.66328414  0.27352940  0.50000000  1
