# generated using pymatgen
data_LiF
_symmetry_space_group_name_H-M   'P 1'
_cell_length_a   4.83377849
_cell_length_b   10.38843245
_cell_length_c   7.00478347
_cell_angle_alpha   90.00000000
_cell_angle_beta   90.00000000
_cell_angle_gamma   90.00000000
_symmetry_Int_Tables_number   1
_chemical_formula_structural   LiF
_chemical_formula_sum   'Li24 F24'
_cell_volume   351.74787321
_cell_formula_units_Z   24
loop_
 _symmetry_equiv_pos_site_id
 _symmetry_equiv_pos_as_xyz
  1  'x, y, z'
loop_
 _atom_site_type_symbol
 _atom_site_label
 _atom_site_symmetry_multiplicity
 _atom_site_fract_x
 _atom_site_fract_y
 _atom_site_fract_z
 _atom_site_occupancy
  F  F0  1  0.73820780  0.30919969  0.77157601  1
  F  F1  1  0.76179220  0.69080031  0.27157601  1
  F  F2  1  0.26179220  0.80919969  0.22842399  1
  F  F3  1  0.23820780  0.19080031  0.72842399  1
  F  F4  1  0.26179220  0.69080031  0.22842399  1
  F  F5  1  0.23820780  0.30919969  0.72842399  1
  F  F6  1  0.73820780  0.19080031  0.77157601  1
  F  F7  1  0.76179220  0.80919969  0.27157601  1
  F  F8  1  0.20087432  0.06356001  0.38980943  1
  F  F9  1  0.29912568  0.93643999  0.88980943  1
  F  F10  1  0.79912568  0.56356001  0.61019057  1
  F  F11  1  0.70087432  0.43643999  0.11019057  1
  F  F12  1  0.79912568  0.93643999  0.61019057  1
  F  F13  1  0.70087432  0.06356001  0.11019057  1
  F  F14  1  0.20087432  0.43643999  0.38980943  1
  F  F15  1  0.29912568  0.56356001  0.88980943  1
  F  F16  1  0.02372786  0.25000000  0.70114111  1
  F  F17  1  0.47627214  0.75000000  0.20114111  1
  F  F18  1  0.97627214  0.75000000  0.29885889  1
  F  F19  1  0.52372786  0.25000000  0.79885889  1
  F  F20  1  0.69592622  0.25000000  0.59819850  1
  F  F21  1  0.80407378  0.75000000  0.09819850  1
  F  F22  1  0.30407378  0.75000000  0.40180150  1
  F  F23  1  0.19592622  0.25000000  0.90180150  1
  Li  Li24  1  0.72855496  0.54629592  0.02060838  1
  Li  Li25  1  -0.22855496  -0.54629592  0.52060838  1
  Li  Li26  1  -0.72855496  1.04629592  -0.02060838  1
  Li  Li27  1  1.22855496  -0.04629592  0.47939162  1
  Li  Li28  1  -0.72855496  -0.54629592  -0.02060838  1
  Li  Li29  1  1.22855496  0.54629592  0.47939162  1
  Li  Li30  1  0.72855496  -0.04629592  0.02060838  1
  Li  Li31  1  -0.22855496  1.04629592  0.52060838  1
  Li  Li32  1  0.89416669  0.92695251  0.81522098  1
  Li  Li33  1  0.60583331  0.07304749  0.31522098  1
  Li  Li34  1  0.10583331  0.42695251  0.18477902  1
  Li  Li35  1  0.39416669  0.57304749  0.68477902  1
  Li  Li36  1  0.10583331  0.07304749  0.18477902  1
  Li  Li37  1  0.39416669  0.92695251  0.68477902  1
  Li  Li38  1  0.89416669  0.57304749  0.81522098  1
  Li  Li39  1  0.60583331  0.42695251  0.31522098  1
  Li  Li40  1  0.09146136  0.25000000  0.25243861  1
  Li  Li41  1  0.40853864  0.75000000  0.75243861  1
  Li  Li42  1  0.90853864  0.75000000  0.74756139  1
  Li  Li43  1  0.59146136  0.25000000  0.24756139  1
  Li  Li44  1  0.00000000  0.00000000  0.00000000  1
  Li  Li45  1  0.50000000  0.00000000  0.50000000  1
  Li  Li46  1  0.00000000  0.50000000  -0.00000000  1
  Li  Li47  1  0.50000000  0.50000000  0.50000000  1
