# generated using pymatgen
data_LiF
_symmetry_space_group_name_H-M   'P 1'
_cell_length_a   6.82228741
_cell_length_b   8.42560203
_cell_length_c   7.96863146
_cell_angle_alpha   90.00000000
_cell_angle_beta   90.00000000
_cell_angle_gamma   90.00000000
_symmetry_Int_Tables_number   1
_chemical_formula_structural   LiF
_chemical_formula_sum   'Li20 F20'
_cell_volume   458.05190672
_cell_formula_units_Z   20
loop_
 _symmetry_equiv_pos_site_id
 _symmetry_equiv_pos_as_xyz
  1  'x, y, z'
loop_
 _atom_site_type_symbol
 _atom_site_label
 _atom_site_symmetry_multiplicity
 _atom_site_fract_x
 _atom_site_fract_y
 _atom_site_fract_z
 _atom_site_occupancy
  F  F0  1  0.65349300  0.91137634  0.00000000  1
  F  F1  1  0.34650700  0.08862366  0.00000000  1
  F  F2  1  0.84650700  0.41137634  0.00000000  1
  F  F3  1  0.15349300  0.58862366  0.00000000  1
  F  F4  1  0.33688433  0.13875114  0.10451255  1
  F  F5  1  -0.33688433  -0.13875114  0.10451255  1
  F  F6  1  0.16311567  0.63875114  -0.10451255  1
  F  F7  1  0.83688433  0.36124886  -0.10451255  1
  F  F8  1  -0.33688433  -0.13875114  -0.10451255  1
  F  F9  1  0.33688433  0.13875114  -0.10451255  1
  F  F10  1  0.83688433  0.36124886  0.10451255  1
  F  F11  1  0.16311567  0.63875114  0.10451255  1
  F  F12  1  0.83842189  0.12012104  0.06825798  1
  F  F13  1  0.16157811  0.87987896  0.06825798  1
  F  F14  1  0.66157811  0.62012104  0.93174202  1
  F  F15  1  0.33842189  0.37987896  0.93174202  1
  F  F16  1  0.16157811  0.87987896  0.93174202  1
  F  F17  1  0.83842189  0.12012104  0.93174202  1
  F  F18  1  0.33842189  0.37987896  0.06825798  1
  F  F19  1  0.66157811  0.62012104  0.06825798  1
  Li  Li20  1  0.77917825  0.84361687  0.00000000  1
  Li  Li21  1  0.22082175  0.15638313  0.00000000  1
  Li  Li22  1  0.72082175  0.34361687  0.00000000  1
  Li  Li23  1  0.27917825  0.65638313  0.00000000  1
  Li  Li24  1  0.00000000  0.50000000  0.00000000  1
  Li  Li25  1  0.50000000  0.00000000  0.00000000  1
  Li  Li26  1  0.50382070  0.17572108  0.35788220  1
  Li  Li27  1  0.49617930  0.82427892  0.35788220  1
  Li  Li28  1  0.99617930  0.67572108  0.64211780  1
  Li  Li29  1  0.00382070  0.32427892  0.64211780  1
  Li  Li30  1  0.49617930  0.82427892  0.64211780  1
  Li  Li31  1  0.50382070  0.17572108  0.64211780  1
  Li  Li32  1  0.00382070  0.32427892  0.35788220  1
  Li  Li33  1  0.99617930  0.67572108  0.35788220  1
  Li  Li34  1  0.17211119  0.43421383  0.00000000  1
  Li  Li35  1  0.82788881  0.56578617  0.00000000  1
  Li  Li36  1  0.32788881  0.93421383  -0.00000000  1
  Li  Li37  1  0.67211119  0.06578617  0.00000000  1
  Li  Li38  1  0.00000000  0.50000000  0.50000000  1
  Li  Li39  1  0.50000000  0.00000000  0.50000000  1
