# generated using pymatgen
data_Li2Ca3F8
_symmetry_space_group_name_H-M   'P 1'
_cell_length_a   19.12064206
_cell_length_b   19.12064206
_cell_length_c   6.97852269
_cell_angle_alpha   90.00000000
_cell_angle_beta   90.00000000
_cell_angle_gamma   120.00000000
_symmetry_Int_Tables_number   1
_chemical_formula_structural   Li2Ca3F8
_chemical_formula_sum   'Li16 Ca24 F64'
_cell_volume   2209.52576244
_cell_formula_units_Z   8
loop_
 _symmetry_equiv_pos_site_id
 _symmetry_equiv_pos_as_xyz
  1  'x, y, z'
loop_
 _atom_site_type_symbol
 _atom_site_label
 _atom_site_symmetry_multiplicity
 _atom_site_fract_x
 _atom_site_fract_y
 _atom_site_fract_z
 _atom_site_occupancy
  Ca  Ca0  1  0.71660597  0.70161492  0.44183393  1
  Ca  Ca1  1  0.29838508  0.01499105  0.44183393  1
  Ca  Ca2  1  0.98500895  0.28339403  0.44183393  1
  Ca  Ca3  1  0.29838508  0.28339403  0.55816607  1
  Ca  Ca4  1  0.98500895  0.70161492  0.55816607  1
  Ca  Ca5  1  0.71660597  0.01499105  0.55816607  1
  Ca  Ca6  1  0.30699935  0.43142521  0.20695057  1
  Ca  Ca7  1  0.56857479  0.87557414  0.20695057  1
  Ca  Ca8  1  0.12442586  0.69300065  0.20695057  1
  Ca  Ca9  1  0.56857479  0.69300065  0.79304943  1
  Ca  Ca10  1  0.12442586  0.43142521  0.79304943  1
  Ca  Ca11  1  0.30699935  0.87557414  0.79304943  1
  Ca  Ca12  1  0.45185829  0.54814171  0.50000000  1
  Ca  Ca13  1  0.45185829  0.90371657  0.50000000  1
  Ca  Ca14  1  0.09628343  0.54814171  0.50000000  1
  Ca  Ca15  1  0.61556527  0.38443473  0.50000000  1
  Ca  Ca16  1  0.61556527  0.23113054  0.50000000  1
  Ca  Ca17  1  0.76886946  0.38443473  0.50000000  1
  Ca  Ca18  1  0.97035774  0.27429162  0.76783565  1
  Ca  Ca19  1  0.72570838  0.69606612  0.76783565  1
  Ca  Ca20  1  0.30393388  0.02964226  0.76783565  1
  Ca  Ca21  1  0.72570838  0.02964226  0.23216435  1
  Ca  Ca22  1  0.30393388  0.27429162  0.23216435  1
  Ca  Ca23  1  0.97035774  0.69606612  0.23216435  1
  F  F24  1  0.92066307  0.07933693  0.00000000  1
  F  F25  1  0.92066307  0.84132614  0.00000000  1
  F  F26  1  0.15867386  0.07933693  0.00000000  1
  F  F27  1  0.95279425  0.43845564  0.83263297  1
  F  F28  1  -0.43845564  0.51433861  0.83263297  1
  F  F29  1  -0.51433861  -0.95279425  0.83263297  1
  F  F30  1  -0.43845564  -0.95279425  -0.83263297  1
  F  F31  1  -0.51433861  0.43845564  -0.83263297  1
  F  F32  1  0.95279425  0.51433861  -0.83263297  1
  F  F33  1  0.33333333  0.66666667  0.50000000  1
  F  F34  1  0.17904358  0.76976037  0.36542424  1
  F  F35  1  0.23023963  0.40928321  0.36542424  1
  F  F36  1  0.59071679  0.82095642  0.36542424  1
  F  F37  1  0.23023963  0.82095642  0.63457576  1
  F  F38  1  0.59071679  0.76976037  0.63457576  1
  F  F39  1  0.17904358  0.40928321  0.63457576  1
  F  F40  1  0.76370646  0.76925923  0.93048878  1
  F  F41  1  0.23074077  0.99444723  0.93048878  1
  F  F42  1  0.00555277  0.23629354  0.93048878  1
  F  F43  1  0.23074077  0.23629354  0.06951122  1
  F  F44  1  0.00555277  0.76925923  0.06951122  1
  F  F45  1  0.76370646  0.99444723  0.06951122  1
  F  F46  1  0.33333333  0.66666667  0.00000000  1
  F  F47  1  0.14479587  0.39487468  0.19915266  1
  F  F48  1  0.60512532  0.74992119  0.19915266  1
  F  F49  1  0.25007881  0.85520413  0.19915266  1
  F  F50  1  0.60512532  0.85520413  0.80084734  1
  F  F51  1  0.25007881  0.39487468  0.80084734  1
  F  F52  1  0.14479587  0.74992119  0.80084734  1
  F  F53  1  0.60483817  0.30030970  0.89410891  1
  F  F54  1  0.69969030  0.30452847  0.89410891  1
  F  F55  1  0.69547153  0.39516183  0.89410891  1
  F  F56  1  0.69969030  0.39516183  0.10589109  1
  F  F57  1  0.69547153  0.30030970  0.10589109  1
  F  F58  1  0.60483817  0.30452847  0.10589109  1
  F  F59  1  0.30218504  0.92078418  0.52667157  1
  F  F60  1  0.07921582  0.38140085  0.52667157  1
  F  F61  1  0.61859915  0.69781496  0.52667157  1
  F  F62  1  0.07921582  0.69781496  0.47332843  1
  F  F63  1  0.61859915  0.92078418  0.47332843  1
  F  F64  1  0.30218504  0.38140085  0.47332843  1
  F  F65  1  0.66666667  0.33333333  0.50000000  1
  F  F66  1  0.79125393  0.14668720  0.79287316  1
  F  F67  1  0.85331280  0.64456672  0.79287316  1
  F  F68  1  0.35543328  0.20874607  0.79287316  1
  F  F69  1  0.85331280  0.20874607  0.20712684  1
  F  F70  1  0.35543328  0.14668720  0.20712684  1
  F  F71  1  0.79125393  0.64456672  0.20712684  1
  F  F72  1  0.43102692  0.26927058  0.23891926  1
  F  F73  1  0.73072942  0.16175635  0.23891926  1
  F  F74  1  0.83824365  0.56897308  0.23891926  1
  F  F75  1  0.73072942  0.56897308  0.76108074  1
  F  F76  1  0.83824365  0.26927058  0.76108074  1
  F  F77  1  0.43102692  0.16175635  0.76108074  1
  F  F78  1  0.00000000  0.00000000  0.50000000  1
  F  F79  1  0.36421214  0.67916794  0.34425984  1
  F  F80  1  0.32083206  0.68504421  0.34425984  1
  F  F81  1  0.31495579  0.63578786  0.34425984  1
  F  F82  1  0.32083206  0.63578786  0.65574016  1
  F  F83  1  0.31495579  0.67916794  0.65574016  1
  F  F84  1  0.36421214  0.68504421  0.65574016  1
  F  F85  1  0.59915447  0.40084553  0.00000000  1
  F  F86  1  0.59915447  0.19830895  0.00000000  1
  F  F87  1  0.80169105  0.40084553  0.00000000  1
  Li  Li88  1  0.20773159  0.66447756  0.42881626  1
  Li  Li89  1  0.33552244  0.54325403  0.42881626  1
  Li  Li90  1  0.45674597  0.79226841  0.42881626  1
  Li  Li91  1  0.33552244  0.79226841  0.57118374  1
  Li  Li92  1  0.45674597  0.66447756  0.57118374  1
  Li  Li93  1  0.20773159  0.54325403  0.57118374  1
  Li  Li94  1  0.66666667  0.33333333  0.00000000  1
  Li  Li95  1  0.48119914  0.22677749  0.71342237  1
  Li  Li96  1  0.77322251  0.25442165  0.71342237  1
  Li  Li97  1  0.74557835  0.51880086  0.71342237  1
  Li  Li98  1  0.77322251  0.51880086  0.28657763  1
  Li  Li99  1  0.74557835  0.22677749  0.28657763  1
  Li  Li100  1  0.48119914  0.25442165  0.28657763  1
  Li  Li101  1  0.24222562  0.75777438  0.00000000  1
  Li  Li102  1  0.24222562  0.48445123  0.00000000  1
  Li  Li103  1  0.51554877  0.75777438  0.00000000  1
