# generated using pymatgen
data_LiF
_symmetry_space_group_name_H-M   'P 1'
_cell_length_a   4.38949226
_cell_length_b   4.38949226
_cell_length_c   27.52700074
_cell_angle_alpha   90.00000000
_cell_angle_beta   90.00000000
_cell_angle_gamma   90.00000000
_symmetry_Int_Tables_number   1
_chemical_formula_structural   LiF
_chemical_formula_sum   'Li22 F22'
_cell_volume   530.38040395
_cell_formula_units_Z   22
loop_
 _symmetry_equiv_pos_site_id
 _symmetry_equiv_pos_as_xyz
  1  'x, y, z'
loop_
 _atom_site_type_symbol
 _atom_site_label
 _atom_site_symmetry_multiplicity
 _atom_site_fract_x
 _atom_site_fract_y
 _atom_site_fract_z
 _atom_site_occupancy
  F  F0  1  0.00000000  0.50000000  0.84040907  1
  F  F1  1  0.50000000  0.00000000  0.84040907  1
  F  F2  1  0.00000000  0.50000000  0.15959093  1
  F  F3  1  0.50000000  0.00000000  0.15959093  1
  F  F4  1  0.50000000  0.50000000  0.50000000  1
  F  F5  1  0.20814306  0.20814306  0.00000000  1
  F  F6  1  0.79185694  0.79185694  0.00000000  1
  F  F7  1  0.79185694  0.20814306  0.00000000  1
  F  F8  1  0.20814306  0.79185694  0.00000000  1
  F  F9  1  0.57788472  0.74122834  -0.00000000  1
  F  F10  1  -0.57788472  -0.74122834  0.00000000  1
  F  F11  1  -0.74122834  0.57788472  0.00000000  1
  F  F12  1  0.74122834  -0.57788472  -0.00000000  1
  F  F13  1  -0.57788472  0.74122834  -0.00000000  1
  F  F14  1  0.57788472  -0.74122834  0.00000000  1
  F  F15  1  0.74122834  0.57788472  -0.00000000  1
  F  F16  1  -0.74122834  -0.57788472  0.00000000  1
  F  F17  1  0.00000000  0.00000000  0.50000000  1
  F  F18  1  0.10890348  0.10890348  0.50000000  1
  F  F19  1  0.89109652  0.89109652  0.50000000  1
  F  F20  1  0.89109652  0.10890348  0.50000000  1
  F  F21  1  0.10890348  0.89109652  0.50000000  1
  Li  Li22  1  0.00000000  0.00000000  0.00000000  1
  Li  Li23  1  0.00000000  0.00000000  0.18271085  1
  Li  Li24  1  0.00000000  0.00000000  0.81728915  1
  Li  Li25  1  0.27677853  0.50000000  0.18872882  1
  Li  Li26  1  0.72322147  0.50000000  0.18872882  1
  Li  Li27  1  0.50000000  0.27677853  0.18872882  1
  Li  Li28  1  0.50000000  0.72322147  0.18872882  1
  Li  Li29  1  0.72322147  0.50000000  0.81127118  1
  Li  Li30  1  0.27677853  0.50000000  0.81127118  1
  Li  Li31  1  0.50000000  0.27677853  0.81127118  1
  Li  Li32  1  0.50000000  0.72322147  0.81127118  1
  Li  Li33  1  0.14730996  0.50000000  0.73048540  1
  Li  Li34  1  0.85269004  0.50000000  0.73048540  1
  Li  Li35  1  0.50000000  0.14730996  0.73048540  1
  Li  Li36  1  0.50000000  0.85269004  0.73048540  1
  Li  Li37  1  0.85269004  0.50000000  0.26951460  1
  Li  Li38  1  0.14730996  0.50000000  0.26951460  1
  Li  Li39  1  0.50000000  0.14730996  0.26951460  1
  Li  Li40  1  0.50000000  0.85269004  0.26951460  1
  Li  Li41  1  0.00000000  0.50000000  0.00000000  1
  Li  Li42  1  0.50000000  0.00000000  0.00000000  1
  Li  Li43  1  0.50000000  0.50000000  0.00000000  1
