# generated using pymatgen
data_LiF
_symmetry_space_group_name_H-M   'P 1'
_cell_length_a   7.15321597
_cell_length_b   7.15321597
_cell_length_c   14.64187351
_cell_angle_alpha   90.00000000
_cell_angle_beta   90.00000000
_cell_angle_gamma   120.00000000
_symmetry_Int_Tables_number   1
_chemical_formula_structural   LiF
_chemical_formula_sum   'Li31 F31'
_cell_volume   648.82855774
_cell_formula_units_Z   31
loop_
 _symmetry_equiv_pos_site_id
 _symmetry_equiv_pos_as_xyz
  1  'x, y, z'
loop_
 _atom_site_type_symbol
 _atom_site_label
 _atom_site_symmetry_multiplicity
 _atom_site_fract_x
 _atom_site_fract_y
 _atom_site_fract_z
 _atom_site_occupancy
  F  F0  1  0.05417845  0.65674192  0.72186534  1
  F  F1  1  0.34325808  0.39743653  0.72186534  1
  F  F2  1  0.60256347  0.94582155  0.72186534  1
  F  F3  1  0.34325808  0.94582155  0.27813466  1
  F  F4  1  0.60256347  0.65674192  0.27813466  1
  F  F5  1  0.05417845  0.39743653  0.27813466  1
  F  F6  1  0.00000000  0.00000000  0.00000000  1
  F  F7  1  0.83129574  0.45847224  0.89195780  1
  F  F8  1  0.54152776  0.37282350  0.89195780  1
  F  F9  1  0.62717650  0.16870426  0.89195780  1
  F  F10  1  0.54152776  0.16870426  0.10804220  1
  F  F11  1  0.62717650  0.45847224  0.10804220  1
  F  F12  1  0.83129574  0.37282350  0.10804220  1
  F  F13  1  0.55644167  0.88890879  0.46653406  1
  F  F14  1  0.11109121  0.66753288  0.46653406  1
  F  F15  1  0.33246712  0.44355833  0.46653406  1
  F  F16  1  0.11109121  0.44355833  0.53346594  1
  F  F17  1  0.33246712  0.88890879  0.53346594  1
  F  F18  1  0.55644167  0.66753288  0.53346594  1
  F  F19  1  0.08376552  0.91579910  0.11994974  1
  F  F20  1  0.08420090  0.16796641  0.11994974  1
  F  F21  1  0.83203359  0.91623448  0.11994974  1
  F  F22  1  0.08420090  0.91623448  0.88005026  1
  F  F23  1  0.83203359  0.91579910  0.88005026  1
  F  F24  1  0.08376552  0.16796641  0.88005026  1
  F  F25  1  0.76877992  0.10480508  0.33696279  1
  F  F26  1  0.89519492  0.66397485  0.33696279  1
  F  F27  1  0.33602515  0.23122008  0.33696279  1
  F  F28  1  0.89519492  0.23122008  0.66303721  1
  F  F29  1  0.33602515  0.10480508  0.66303721  1
  F  F30  1  0.76877992  0.66397485  0.66303721  1
  Li  Li31  1  0.31220287  0.48426729  0.64451697  1
  Li  Li32  1  -0.48426729  -0.17206441  0.64451697  1
  Li  Li33  1  0.17206441  -0.31220287  0.64451697  1
  Li  Li34  1  -0.48426729  -0.31220287  -0.64451697  1
  Li  Li35  1  0.17206441  0.48426729  -0.64451697  1
  Li  Li36  1  0.31220287  -0.17206441  -0.64451697  1
  Li  Li37  1  0.66666667  0.33333333  0.50000000  1
  Li  Li38  1  0.51134218  0.66429351  0.14328548  1
  Li  Li39  1  0.33570649  0.84704867  0.14328548  1
  Li  Li40  1  0.15295133  0.48865782  0.14328548  1
  Li  Li41  1  0.33570649  0.48865782  0.85671452  1
  Li  Li42  1  0.15295133  0.66429351  0.85671452  1
  Li  Li43  1  0.51134218  0.84704867  0.85671452  1
  Li  Li44  1  0.00000000  0.00000000  0.50000000  1
  Li  Li45  1  0.96450121  0.87214843  0.37500159  1
  Li  Li46  1  0.12785157  0.09235277  0.37500159  1
  Li  Li47  1  0.90764723  0.03549879  0.37500159  1
  Li  Li48  1  0.12785157  0.03549879  0.62499841  1
  Li  Li49  1  0.90764723  0.87214843  0.62499841  1
  Li  Li50  1  0.96450121  0.09235277  0.62499841  1
  Li  Li51  1  0.80472506  0.57795744  0.19601378  1
  Li  Li52  1  0.42204256  0.22676762  0.19601378  1
  Li  Li53  1  0.77323238  0.19527494  0.19601378  1
  Li  Li54  1  0.42204256  0.19527494  0.80398622  1
  Li  Li55  1  0.77323238  0.57795744  0.80398622  1
  Li  Li56  1  0.80472506  0.22676762  0.80398622  1
  Li  Li57  1  0.47650155  0.52349845  0.00000000  1
  Li  Li58  1  0.47650155  0.95300310  0.00000000  1
  Li  Li59  1  0.04699690  0.52349845  0.00000000  1
  Li  Li60  1  0.33333333  0.66666667  0.22981175  1
  Li  Li61  1  0.33333333  0.66666667  0.77018825  1
