# generated using pymatgen
data_LiF
_symmetry_space_group_name_H-M   'P 1'
_cell_length_a   8.84059951
_cell_length_b   8.84059951
_cell_length_c   34.13430049
_cell_angle_alpha   90.00000000
_cell_angle_beta   90.00000000
_cell_angle_gamma   120.00000000
_symmetry_Int_Tables_number   1
_chemical_formula_structural   LiF
_chemical_formula_sum   'Li64 F64'
_cell_volume   2310.38881299
_cell_formula_units_Z   64
loop_
 _symmetry_equiv_pos_site_id
 _symmetry_equiv_pos_as_xyz
  1  'x, y, z'
loop_
 _atom_site_type_symbol
 _atom_site_label
 _atom_site_symmetry_multiplicity
 _atom_site_fract_x
 _atom_site_fract_y
 _atom_site_fract_z
 _atom_site_occupancy
  F  F0  1  0.90896301  0.28201543  0.22411679  1
  F  F1  1  -0.28201543  0.62694758  0.22411679  1
  F  F2  1  -0.62694758  -0.90896301  0.22411679  1
  F  F3  1  0.90896301  0.28201543  -0.22411679  1
  F  F4  1  -0.28201543  0.62694758  -0.22411679  1
  F  F5  1  -0.62694758  -0.90896301  -0.22411679  1
  F  F6  1  0.28201543  0.90896301  -0.22411679  1
  F  F7  1  0.62694758  -0.28201543  -0.22411679  1
  F  F8  1  -0.90896301  -0.62694758  -0.22411679  1
  F  F9  1  0.28201543  0.90896301  0.22411679  1
  F  F10  1  0.62694758  -0.28201543  0.22411679  1
  F  F11  1  -0.90896301  -0.62694758  0.22411679  1
  F  F12  1  0.00000000  0.00000000  0.92900397  1
  F  F13  1  0.00000000  0.00000000  0.07099603  1
  F  F14  1  0.85338145  0.57548286  0.11485909  1
  F  F15  1  0.42451714  0.27789860  0.11485909  1
  F  F16  1  0.72210140  0.14661855  0.11485909  1
  F  F17  1  0.85338145  0.57548286  0.88514091  1
  F  F18  1  0.42451714  0.27789860  0.88514091  1
  F  F19  1  0.72210140  0.14661855  0.88514091  1
  F  F20  1  0.57548286  0.85338145  0.88514091  1
  F  F21  1  0.27789860  0.42451714  0.88514091  1
  F  F22  1  0.14661855  0.72210140  0.88514091  1
  F  F23  1  0.57548286  0.85338145  0.11485909  1
  F  F24  1  0.27789860  0.42451714  0.11485909  1
  F  F25  1  0.14661855  0.72210140  0.11485909  1
  F  F26  1  0.61694068  -0.00000000  0.85472291  1
  F  F27  1  0.00000000  0.61694068  0.85472291  1
  F  F28  1  0.38305932  0.38305932  0.85472291  1
  F  F29  1  0.61694068  -0.00000000  0.14527709  1
  F  F30  1  0.00000000  0.61694068  0.14527709  1
  F  F31  1  0.38305932  0.38305932  0.14527709  1
  F  F32  1  0.86903714  0.00000000  0.09608057  1
  F  F33  1  0.00000000  0.86903714  0.09608057  1
  F  F34  1  0.13096286  0.13096286  0.09608057  1
  F  F35  1  0.86903714  0.00000000  0.90391943  1
  F  F36  1  0.00000000  0.86903714  0.90391943  1
  F  F37  1  0.13096286  0.13096286  0.90391943  1
  F  F38  1  0.82542773  0.77865243  0.28925615  1
  F  F39  1  0.22134757  0.04677531  0.28925615  1
  F  F40  1  0.95322469  0.17457227  0.28925615  1
  F  F41  1  0.82542773  0.77865243  0.71074385  1
  F  F42  1  0.22134757  0.04677531  0.71074385  1
  F  F43  1  0.95322469  0.17457227  0.71074385  1
  F  F44  1  0.77865243  0.82542773  0.71074385  1
  F  F45  1  0.04677531  0.22134757  0.71074385  1
  F  F46  1  0.17457227  0.95322469  0.71074385  1
  F  F47  1  0.77865243  0.82542773  0.28925615  1
  F  F48  1  0.04677531  0.22134757  0.28925615  1
  F  F49  1  0.17457227  0.95322469  0.28925615  1
  F  F50  1  0.27849028  0.68716660  0.56013014  1
  F  F51  1  0.31283340  0.59132368  0.56013014  1
  F  F52  1  0.40867632  0.72150972  0.56013014  1
  F  F53  1  0.27849028  0.68716660  0.43986986  1
  F  F54  1  0.31283340  0.59132368  0.43986986  1
  F  F55  1  0.40867632  0.72150972  0.43986986  1
  F  F56  1  0.68716660  0.27849028  0.43986986  1
  F  F57  1  0.59132368  0.31283340  0.43986986  1
  F  F58  1  0.72150972  0.40867632  0.43986986  1
  F  F59  1  0.68716660  0.27849028  0.56013014  1
  F  F60  1  0.59132368  0.31283340  0.56013014  1
  F  F61  1  0.72150972  0.40867632  0.56013014  1
  F  F62  1  0.33333333  0.66666667  0.00000000  1
  F  F63  1  0.66666667  0.33333333  0.00000000  1
  Li  Li64  1  0.88909879  0.00000000  0.53664979  1
  Li  Li65  1  0.00000000  0.88909879  0.53664979  1
  Li  Li66  1  0.11090121  0.11090121  0.53664979  1
  Li  Li67  1  0.88909879  0.00000000  0.46335021  1
  Li  Li68  1  0.00000000  0.88909879  0.46335021  1
  Li  Li69  1  0.11090121  0.11090121  0.46335021  1
  Li  Li70  1  0.35193568  0.57093697  0.18640262  1
  Li  Li71  1  0.42906303  0.78099870  0.18640262  1
  Li  Li72  1  0.21900130  0.64806432  0.18640262  1
  Li  Li73  1  0.35193568  0.57093697  0.81359738  1
  Li  Li74  1  0.42906303  0.78099870  0.81359738  1
  Li  Li75  1  0.21900130  0.64806432  0.81359738  1
  Li  Li76  1  0.57093697  0.35193568  0.81359738  1
  Li  Li77  1  0.78099870  0.42906303  0.81359738  1
  Li  Li78  1  0.64806432  0.21900130  0.81359738  1
  Li  Li79  1  0.57093697  0.35193568  0.18640262  1
  Li  Li80  1  0.78099870  0.42906303  0.18640262  1
  Li  Li81  1  0.64806432  0.21900130  0.18640262  1
  Li  Li82  1  0.20651952  0.70936046  0.39376710  1
  Li  Li83  1  0.29063954  0.49715905  0.39376710  1
  Li  Li84  1  0.50284095  0.79348048  0.39376710  1
  Li  Li85  1  0.20651952  0.70936046  0.60623290  1
  Li  Li86  1  0.29063954  0.49715905  0.60623290  1
  Li  Li87  1  0.50284095  0.79348048  0.60623290  1
  Li  Li88  1  0.70936046  0.20651952  0.60623290  1
  Li  Li89  1  0.49715905  0.29063954  0.60623290  1
  Li  Li90  1  0.79348048  0.50284095  0.60623290  1
  Li  Li91  1  0.70936046  0.20651952  0.39376710  1
  Li  Li92  1  0.49715905  0.29063954  0.39376710  1
  Li  Li93  1  0.79348048  0.50284095  0.39376710  1
  Li  Li94  1  0.11360947  0.41026752  0.71169400  1
  Li  Li95  1  0.58973248  0.70334195  0.71169400  1
  Li  Li96  1  0.29665805  0.88639053  0.71169400  1
  Li  Li97  1  0.11360947  0.41026752  0.28830600  1
  Li  Li98  1  0.58973248  0.70334195  0.28830600  1
  Li  Li99  1  0.29665805  0.88639053  0.28830600  1
  Li  Li100  1  0.41026752  0.11360947  0.28830600  1
  Li  Li101  1  0.70334195  0.58973248  0.28830600  1
  Li  Li102  1  0.88639053  0.29665805  0.28830600  1
  Li  Li103  1  0.41026752  0.11360947  0.71169400  1
  Li  Li104  1  0.70334195  0.58973248  0.71169400  1
  Li  Li105  1  0.88639053  0.29665805  0.71169400  1
  Li  Li106  1  0.83326866  0.00000000  0.00000000  1
  Li  Li107  1  0.00000000  0.83326866  0.00000000  1
  Li  Li108  1  0.16673134  0.16673134  0.00000000  1
  Li  Li109  1  0.54814561  0.41437703  0.00000000  1
  Li  Li110  1  0.58562297  0.13376858  -0.00000000  1
  Li  Li111  1  0.86623142  0.45185439  0.00000000  1
  Li  Li112  1  0.41437703  0.54814561  0.00000000  1
  Li  Li113  1  0.13376858  0.58562297  -0.00000000  1
  Li  Li114  1  0.45185439  0.86623142  0.00000000  1
  Li  Li115  1  0.00000000  0.00000000  0.50000000  1
  Li  Li116  1  0.87973865  0.75464185  0.93028552  1
  Li  Li117  1  0.24535815  0.12509680  0.93028552  1
  Li  Li118  1  0.87490320  0.12026135  0.93028552  1
  Li  Li119  1  0.87973865  0.75464185  0.06971448  1
  Li  Li120  1  0.24535815  0.12509680  0.06971448  1
  Li  Li121  1  0.87490320  0.12026135  0.06971448  1
  Li  Li122  1  0.75464185  0.87973865  0.06971448  1
  Li  Li123  1  0.12509680  0.24535815  0.06971448  1
  Li  Li124  1  0.12026135  0.87490320  0.06971448  1
  Li  Li125  1  0.75464185  0.87973865  0.93028552  1
  Li  Li126  1  0.12509680  0.24535815  0.93028552  1
  Li  Li127  1  0.12026135  0.87490320  0.93028552  1
