# generated using pymatgen
data_LiF
_symmetry_space_group_name_H-M   'P 1'
_cell_length_a   6.19074690
_cell_length_b   15.08222120
_cell_length_c   6.47857361
_cell_angle_alpha   90.00000000
_cell_angle_beta   90.00000000
_cell_angle_gamma   90.00000000
_symmetry_Int_Tables_number   1
_chemical_formula_structural   LiF
_chemical_formula_sum   'Li24 F24'
_cell_volume   604.90580503
_cell_formula_units_Z   24
loop_
 _symmetry_equiv_pos_site_id
 _symmetry_equiv_pos_as_xyz
  1  'x, y, z'
loop_
 _atom_site_type_symbol
 _atom_site_label
 _atom_site_symmetry_multiplicity
 _atom_site_fract_x
 _atom_site_fract_y
 _atom_site_fract_z
 _atom_site_occupancy
  F  F0  1  0.19999992  0.30627397  0.20259409  1
  F  F1  1  0.30000008  0.69372603  0.70259409  1
  F  F2  1  0.80000008  0.80627397  0.79740591  1
  F  F3  1  0.69999992  0.19372603  0.29740591  1
  F  F4  1  0.80000008  0.69372603  0.79740591  1
  F  F5  1  0.69999992  0.30627397  0.29740591  1
  F  F6  1  0.19999992  0.19372603  0.20259409  1
  F  F7  1  0.30000008  0.80627397  0.70259409  1
  F  F8  1  0.49217517  0.68150155  0.04126457  1
  F  F9  1  0.00782483  0.31849845  0.54126457  1
  F  F10  1  0.50782483  0.18150155  0.95873543  1
  F  F11  1  0.99217517  0.81849845  0.45873543  1
  F  F12  1  0.50782483  0.31849845  0.95873543  1
  F  F13  1  0.99217517  0.68150155  0.45873543  1
  F  F14  1  0.49217517  0.81849845  0.04126457  1
  F  F15  1  0.00782483  0.18150155  0.54126457  1
  F  F16  1  0.17090237  0.16267861  0.52351436  1
  F  F17  1  0.32909763  0.83732139  0.02351436  1
  F  F18  1  0.82909763  0.66267861  0.47648564  1
  F  F19  1  0.67090237  0.33732139  0.97648564  1
  F  F20  1  0.82909763  0.83732139  0.47648564  1
  F  F21  1  0.67090237  0.16267861  0.97648564  1
  F  F22  1  0.17090237  0.33732139  0.52351436  1
  F  F23  1  0.32909763  0.66267861  0.02351436  1
  Li  Li24  1  0.00000000  0.00000000  0.00000000  1
  Li  Li25  1  0.50000000  -0.00000000  0.50000000  1
  Li  Li26  1  0.00000000  0.50000000  0.00000000  1
  Li  Li27  1  0.50000000  0.50000000  0.50000000  1
  Li  Li28  1  0.35423606  0.25000000  0.66988738  1
  Li  Li29  1  0.14576394  0.75000000  0.16988738  1
  Li  Li30  1  0.64576394  0.75000000  0.33011262  1
  Li  Li31  1  0.85423606  0.25000000  0.83011262  1
  Li  Li32  1  0.00000000  0.00000000  0.50000000  1
  Li  Li33  1  0.50000000  -0.00000000  0.00000000  1
  Li  Li34  1  0.00000000  0.50000000  0.50000000  1
  Li  Li35  1  0.50000000  0.50000000  -0.00000000  1
  Li  Li36  1  0.02332487  0.41662361  0.53520813  1
  Li  Li37  1  0.47667513  -0.41662361  1.03520813  1
  Li  Li38  1  -0.02332487  0.91662361  -0.53520813  1
  Li  Li39  1  0.52332487  0.08337639  -0.03520813  1
  Li  Li40  1  -0.02332487  -0.41662361  -0.53520813  1
  Li  Li41  1  0.52332487  0.41662361  -0.03520813  1
  Li  Li42  1  0.02332487  0.08337639  0.53520813  1
  Li  Li43  1  0.47667513  0.91662361  1.03520813  1
  Li  Li44  1  0.68410551  0.25000000  0.54063037  1
  Li  Li45  1  0.81589449  0.75000000  0.04063037  1
  Li  Li46  1  0.31589449  0.75000000  0.45936963  1
  Li  Li47  1  0.18410551  0.25000000  0.95936963  1
