# generated using pymatgen
data_LiF
_symmetry_space_group_name_H-M   'P 1'
_cell_length_a   8.22279889
_cell_length_b   8.46090338
_cell_length_c   11.83942355
_cell_angle_alpha   90.00000000
_cell_angle_beta   90.00000000
_cell_angle_gamma   90.00000000
_symmetry_Int_Tables_number   1
_chemical_formula_structural   LiF
_chemical_formula_sum   'Li24 F24'
_cell_volume   823.69600875
_cell_formula_units_Z   24
loop_
 _symmetry_equiv_pos_site_id
 _symmetry_equiv_pos_as_xyz
  1  'x, y, z'
loop_
 _atom_site_type_symbol
 _atom_site_label
 _atom_site_symmetry_multiplicity
 _atom_site_fract_x
 _atom_site_fract_y
 _atom_site_fract_z
 _atom_site_occupancy
  F  F0  1  0.55572047  0.62166789  0.22398062  1
  F  F1  1  0.94427953  0.37833211  0.72398062  1
  F  F2  1  0.44427953  0.12166789  0.77601938  1
  F  F3  1  0.05572047  0.87833211  0.27601938  1
  F  F4  1  0.44427953  0.37833211  0.77601938  1
  F  F5  1  0.05572047  0.62166789  0.27601938  1
  F  F6  1  0.55572047  0.87833211  0.22398062  1
  F  F7  1  0.94427953  0.12166789  0.72398062  1
  F  F8  1  0.52038188  0.25000000  0.23110128  1
  F  F9  1  0.97961812  0.75000000  0.73110128  1
  F  F10  1  0.47961812  0.75000000  0.76889872  1
  F  F11  1  0.02038188  0.25000000  0.26889872  1
  F  F12  1  0.94806211  0.84371766  0.70377208  1
  F  F13  1  0.55193789  0.15628234  0.20377208  1
  F  F14  1  0.05193789  0.34371766  0.29622792  1
  F  F15  1  0.44806211  0.65628234  0.79622792  1
  F  F16  1  0.05193789  0.15628234  0.29622792  1
  F  F17  1  0.44806211  0.84371766  0.79622792  1
  F  F18  1  0.94806211  0.65628234  0.70377208  1
  F  F19  1  0.55193789  0.34371766  0.20377208  1
  F  F20  1  0.18497472  0.25000000  0.05344724  1
  F  F21  1  0.31502528  0.75000000  0.55344724  1
  F  F22  1  0.81502528  0.75000000  0.94655276  1
  F  F23  1  0.68497472  0.25000000  0.44655276  1
  Li  Li24  1  0.64080250  0.43161600  0.20821727  1
  Li  Li25  1  -0.14080250  -0.43161600  0.70821727  1
  Li  Li26  1  -0.64080250  0.93161600  -0.20821727  1
  Li  Li27  1  1.14080250  0.06838400  0.29178273  1
  Li  Li28  1  -0.64080250  -0.43161600  -0.20821727  1
  Li  Li29  1  1.14080250  0.43161600  0.29178273  1
  Li  Li30  1  0.64080250  0.06838400  0.20821727  1
  Li  Li31  1  -0.14080250  0.93161600  0.70821727  1
  Li  Li32  1  0.00000000  0.00000000  0.50000000  1
  Li  Li33  1  0.50000000  0.00000000  0.00000000  1
  Li  Li34  1  0.00000000  0.50000000  0.50000000  1
  Li  Li35  1  0.50000000  0.50000000  0.00000000  1
  Li  Li36  1  0.32904399  0.25000000  0.79856677  1
  Li  Li37  1  0.17095601  0.75000000  0.29856677  1
  Li  Li38  1  0.67095601  0.75000000  0.20143323  1
  Li  Li39  1  0.82904399  0.25000000  0.70143323  1
  Li  Li40  1  0.13483557  0.83121749  0.14006126  1
  Li  Li41  1  0.36516443  0.16878251  0.64006126  1
  Li  Li42  1  0.86516443  0.33121749  0.85993874  1
  Li  Li43  1  0.63483557  0.66878251  0.35993874  1
  Li  Li44  1  0.86516443  0.16878251  0.85993874  1
  Li  Li45  1  0.63483557  0.83121749  0.35993874  1
  Li  Li46  1  0.13483557  0.66878251  0.14006126  1
  Li  Li47  1  0.36516443  0.33121749  0.64006126  1
