# generated using pymatgen
data_LiF
_symmetry_space_group_name_H-M   'P 1'
_cell_length_a   4.75067465
_cell_length_b   5.99244018
_cell_length_c   8.65120320
_cell_angle_alpha   90.00000000
_cell_angle_beta   90.00000000
_cell_angle_gamma   90.00000000
_symmetry_Int_Tables_number   1
_chemical_formula_structural   LiF
_chemical_formula_sum   'Li8 F8'
_cell_volume   246.28360874
_cell_formula_units_Z   8
loop_
 _symmetry_equiv_pos_site_id
 _symmetry_equiv_pos_as_xyz
  1  'x, y, z'
loop_
 _atom_site_type_symbol
 _atom_site_label
 _atom_site_symmetry_multiplicity
 _atom_site_fract_x
 _atom_site_fract_y
 _atom_site_fract_z
 _atom_site_occupancy
  F  F0  1  0.89917149  0.28842707  0.04037988  1
  F  F1  1  -0.89917149  -0.28842707  0.04037988  1
  F  F2  1  -0.39917149  0.78842707  0.45962012  1
  F  F3  1  1.39917149  0.21157293  0.45962012  1
  F  F4  1  -0.89917149  -0.28842707  -0.04037988  1
  F  F5  1  0.89917149  0.28842707  -0.04037988  1
  F  F6  1  1.39917149  0.21157293  0.54037988  1
  F  F7  1  -0.39917149  0.78842707  0.54037988  1
  Li  Li8  1  0.00000000  0.00000000  0.50000000  1
  Li  Li9  1  0.50000000  0.50000000  0.00000000  1
  Li  Li10  1  0.30799144  0.17237857  0.00000000  1
  Li  Li11  1  0.69200856  0.82762143  0.00000000  1
  Li  Li12  1  0.19200856  0.67237857  0.50000000  1
  Li  Li13  1  0.80799144  0.32762143  0.50000000  1
  Li  Li14  1  0.00000000  0.50000000  0.50000000  1
  Li  Li15  1  0.50000000  0.00000000  0.00000000  1
