# generated using pymatgen
data_LiCaF3
_symmetry_space_group_name_H-M   'P 1'
_cell_length_a   10.53252133
_cell_length_b   10.53252133
_cell_length_c   15.46887646
_cell_angle_alpha   90.00000000
_cell_angle_beta   90.00000000
_cell_angle_gamma   120.00000000
_symmetry_Int_Tables_number   1
_chemical_formula_structural   LiCaF3
_chemical_formula_sum   'Li18 Ca18 F54'
_cell_volume   1486.12074725
_cell_formula_units_Z   18
loop_
 _symmetry_equiv_pos_site_id
 _symmetry_equiv_pos_as_xyz
  1  'x, y, z'
loop_
 _atom_site_type_symbol
 _atom_site_label
 _atom_site_symmetry_multiplicity
 _atom_site_fract_x
 _atom_site_fract_y
 _atom_site_fract_z
 _atom_site_occupancy
  Ca  Ca0  1  0.50000000  0.00000000  0.00000000  1
  Ca  Ca1  1  0.00000000  0.50000000  0.00000000  1
  Ca  Ca2  1  0.50000000  0.50000000  0.00000000  1
  Ca  Ca3  1  0.00000000  0.50000000  0.50000000  1
  Ca  Ca4  1  0.50000000  0.00000000  0.50000000  1
  Ca  Ca5  1  0.50000000  0.50000000  0.50000000  1
  Ca  Ca6  1  0.16666667  0.33333333  0.33333333  1
  Ca  Ca7  1  0.66666667  0.83333333  0.33333333  1
  Ca  Ca8  1  0.16666667  0.83333333  0.33333333  1
  Ca  Ca9  1  0.66666667  0.83333333  0.83333333  1
  Ca  Ca10  1  0.16666667  0.33333333  0.83333333  1
  Ca  Ca11  1  0.16666667  0.83333333  0.83333333  1
  Ca  Ca12  1  0.83333333  0.66666667  0.66666667  1
  Ca  Ca13  1  0.33333333  0.16666667  0.66666667  1
  Ca  Ca14  1  0.83333333  0.16666667  0.66666667  1
  Ca  Ca15  1  0.33333333  0.16666667  0.16666667  1
  Ca  Ca16  1  0.83333333  0.66666667  0.16666667  1
  Ca  Ca17  1  0.83333333  0.16666667  0.16666667  1
  F  F18  1  0.37856731  0.00000000  0.25000000  1
  F  F19  1  0.00000000  0.37856731  0.25000000  1
  F  F20  1  0.62143269  0.62143269  0.25000000  1
  F  F21  1  0.62143269  0.00000000  0.75000000  1
  F  F22  1  0.00000000  0.62143269  0.75000000  1
  F  F23  1  0.37856731  0.37856731  0.75000000  1
  F  F24  1  0.04523398  0.33333333  0.58333333  1
  F  F25  1  0.66666667  0.71190064  0.58333333  1
  F  F26  1  0.28809936  0.95476602  0.58333333  1
  F  F27  1  0.28809936  0.33333333  0.08333333  1
  F  F28  1  0.66666667  0.95476602  0.08333333  1
  F  F29  1  0.04523398  0.71190064  0.08333333  1
  F  F30  1  0.71190064  0.66666667  0.91666667  1
  F  F31  1  0.33333333  0.04523398  0.91666667  1
  F  F32  1  0.95476602  0.28809936  0.91666667  1
  F  F33  1  0.95476602  0.66666667  0.41666667  1
  F  F34  1  0.33333333  0.28809936  0.41666667  1
  F  F35  1  0.71190064  0.04523398  0.41666667  1
  F  F36  1  0.12454856  0.79126484  0.70679117  1
  F  F37  1  -0.79126484  -0.66671627  0.70679117  1
  F  F38  1  0.66671627  -0.12454856  0.70679117  1
  F  F39  1  0.79126484  0.12454856  -0.20679117  1
  F  F40  1  -0.66671627  -0.79126484  -0.20679117  1
  F  F41  1  -0.12454856  0.66671627  -0.20679117  1
  F  F42  1  -0.12454856  -0.79126484  -0.70679117  1
  F  F43  1  0.79126484  0.66671627  -0.70679117  1
  F  F44  1  -0.66671627  0.12454856  -0.70679117  1
  F  F45  1  -0.79126484  -0.12454856  1.20679117  1
  F  F46  1  0.66671627  0.79126484  1.20679117  1
  F  F47  1  0.12454856  -0.66671627  1.20679117  1
  F  F48  1  0.79121523  1.12459817  1.04012450  1
  F  F49  1  -0.12459817  -0.33338294  1.04012450  1
  F  F50  1  1.33338294  0.20878477  1.04012450  1
  F  F51  1  1.45793150  0.45788190  0.12654217  1
  F  F52  1  -0.00004961  -0.45793150  0.12654217  1
  F  F53  1  0.54211810  1.00004961  0.12654217  1
  F  F54  1  0.54211810  -0.45793150  -0.37345783  1
  F  F55  1  1.45793150  1.00004961  -0.37345783  1
  F  F56  1  -0.00004961  0.45788190  -0.37345783  1
  F  F57  1  -0.12459817  0.20878477  1.54012450  1
  F  F58  1  1.33338294  1.12459817  1.54012450  1
  F  F59  1  0.79121523  -0.33338294  1.54012450  1
  F  F60  1  0.45788190  1.45793150  1.37345783  1
  F  F61  1  -0.45793150  -0.00004961  1.37345783  1
  F  F62  1  1.00004961  0.54211810  1.37345783  1
  F  F63  1  1.12459817  0.79121523  0.45987550  1
  F  F64  1  -0.33338294  -0.12459817  0.45987550  1
  F  F65  1  0.20878477  1.33338294  0.45987550  1
  F  F66  1  0.20878477  -0.12459817  -0.04012450  1
  F  F67  1  1.12459817  1.33338294  -0.04012450  1
  F  F68  1  -0.33338294  0.79121523  -0.04012450  1
  F  F69  1  -0.45793150  0.54211810  1.87345783  1
  F  F70  1  1.00004961  1.45793150  1.87345783  1
  F  F71  1  0.45788190  -0.00004961  1.87345783  1
  Li  Li72  1  0.13302730  0.00000000  0.25000000  1
  Li  Li73  1  0.00000000  0.13302730  0.25000000  1
  Li  Li74  1  0.86697270  0.86697270  0.25000000  1
  Li  Li75  1  0.86697270  0.00000000  0.75000000  1
  Li  Li76  1  0.00000000  0.86697270  0.75000000  1
  Li  Li77  1  0.13302730  0.13302730  0.75000000  1
  Li  Li78  1  0.79969396  0.33333333  0.58333333  1
  Li  Li79  1  0.66666667  0.46636063  0.58333333  1
  Li  Li80  1  0.53363937  0.20030604  0.58333333  1
  Li  Li81  1  0.53363937  0.33333333  0.08333333  1
  Li  Li82  1  0.66666667  0.20030604  0.08333333  1
  Li  Li83  1  0.79969396  0.46636063  0.08333333  1
  Li  Li84  1  0.46636063  0.66666667  0.91666667  1
  Li  Li85  1  0.33333333  0.79969396  0.91666667  1
  Li  Li86  1  0.20030604  0.53363937  0.91666667  1
  Li  Li87  1  0.20030604  0.66666667  0.41666667  1
  Li  Li88  1  0.33333333  0.53363937  0.41666667  1
  Li  Li89  1  0.46636063  0.79969396  0.41666667  1
