# generated using pymatgen
data_LiF
_symmetry_space_group_name_H-M   'P 1'
_cell_length_a   4.21478296
_cell_length_b   4.21478296
_cell_length_c   9.63268442
_cell_angle_alpha   90.00000000
_cell_angle_beta   90.00000000
_cell_angle_gamma   120.00000000
_symmetry_Int_Tables_number   1
_chemical_formula_structural   LiF
_chemical_formula_sum   'Li6 F6'
_cell_volume   148.19324073
_cell_formula_units_Z   6
loop_
 _symmetry_equiv_pos_site_id
 _symmetry_equiv_pos_as_xyz
  1  'x, y, z'
loop_
 _atom_site_type_symbol
 _atom_site_label
 _atom_site_symmetry_multiplicity
 _atom_site_fract_x
 _atom_site_fract_y
 _atom_site_fract_z
 _atom_site_occupancy
  F  F0  1  0.00000000  0.00000000  0.00000000  1
  F  F1  1  0.26043665  0.73956335  0.50000000  1
  F  F2  1  0.26043665  0.52087330  0.50000000  1
  F  F3  1  0.47912670  0.73956335  0.50000000  1
  F  F4  1  0.66666667  0.33333333  0.16317534  1
  F  F5  1  0.66666667  0.33333333  0.83682466  1
  Li  Li6  1  0.47235250  0.88680529  0.23553124  1
  Li  Li7  1  -0.88680529  -0.41445278  0.23553124  1
  Li  Li8  1  0.41445278  -0.47235250  0.23553124  1
  Li  Li9  1  -0.88680529  -0.47235250  -0.23553124  1
  Li  Li10  1  0.41445278  0.88680529  -0.23553124  1
  Li  Li11  1  0.47235250  -0.41445278  -0.23553124  1
