# generated using pymatgen
data_LiF
_symmetry_space_group_name_H-M   'P 1'
_cell_length_a   3.65157992
_cell_length_b   15.31999949
_cell_length_c   9.20991946
_cell_angle_alpha   90.00000000
_cell_angle_beta   90.00000000
_cell_angle_gamma   90.00000000
_symmetry_Int_Tables_number   1
_chemical_formula_structural   LiF
_chemical_formula_sum   'Li24 F24'
_cell_volume   515.22317892
_cell_formula_units_Z   24
loop_
 _symmetry_equiv_pos_site_id
 _symmetry_equiv_pos_as_xyz
  1  'x, y, z'
loop_
 _atom_site_type_symbol
 _atom_site_label
 _atom_site_symmetry_multiplicity
 _atom_site_fract_x
 _atom_site_fract_y
 _atom_site_fract_z
 _atom_site_occupancy
  F  F0  1  0.34140049  0.49532275  0.68269583  1
  F  F1  1  0.15859951  0.50467725  0.18269583  1
  F  F2  1  0.65859951  0.99532275  0.31730417  1
  F  F3  1  0.84140049  0.00467725  0.81730417  1
  F  F4  1  0.65859951  0.50467725  0.31730417  1
  F  F5  1  0.84140049  0.49532275  0.81730417  1
  F  F6  1  0.34140049  0.00467725  0.68269583  1
  F  F7  1  0.15859951  0.99532275  0.18269583  1
  F  F8  1  0.29516707  0.36170434  0.04337184  1
  F  F9  1  0.20483293  0.63829566  0.54337184  1
  F  F10  1  0.70483293  0.86170434  0.95662816  1
  F  F11  1  0.79516707  0.13829566  0.45662816  1
  F  F12  1  0.70483293  0.63829566  0.95662816  1
  F  F13  1  0.79516707  0.36170434  0.45662816  1
  F  F14  1  0.29516707  0.13829566  0.04337184  1
  F  F15  1  0.20483293  0.86170434  0.54337184  1
  F  F16  1  0.92547279  0.89737361  0.67112102  1
  F  F17  1  0.57452721  0.10262639  0.17112102  1
  F  F18  1  0.07452721  0.39737361  0.32887898  1
  F  F19  1  0.42547279  0.60262639  0.82887898  1
  F  F20  1  0.07452721  0.10262639  0.32887898  1
  F  F21  1  0.42547279  0.89737361  0.82887898  1
  F  F22  1  0.92547279  0.60262639  0.67112102  1
  F  F23  1  0.57452721  0.39737361  0.17112102  1
  Li  Li24  1  0.00000000  0.00000000  0.00000000  1
  Li  Li25  1  0.50000000  0.00000000  0.50000000  1
  Li  Li26  1  0.00000000  0.50000000  0.00000000  1
  Li  Li27  1  0.50000000  0.50000000  0.50000000  1
  Li  Li28  1  0.95133451  0.25000000  0.61862150  1
  Li  Li29  1  0.54866549  0.75000000  0.11862150  1
  Li  Li30  1  0.04866549  0.75000000  0.38137850  1
  Li  Li31  1  0.45133451  0.25000000  0.88137850  1
  Li  Li32  1  0.06068399  0.93518894  0.11838122  1
  Li  Li33  1  0.43931601  -0.93518894  0.61838122  1
  Li  Li34  1  -0.06068399  1.43518894  -0.11838122  1
  Li  Li35  1  0.56068399  -0.43518894  0.38161878  1
  Li  Li36  1  -0.06068399  -0.93518894  -0.11838122  1
  Li  Li37  1  0.56068399  0.93518894  0.38161878  1
  Li  Li38  1  0.06068399  -0.43518894  0.11838122  1
  Li  Li39  1  0.43931601  1.43518894  0.61838122  1
  Li  Li40  1  0.32295469  0.20775075  0.41950416  1
  Li  Li41  1  0.17704531  0.79224925  0.91950416  1
  Li  Li42  1  0.67704531  0.70775075  0.58049584  1
  Li  Li43  1  0.82295469  0.29224925  0.08049584  1
  Li  Li44  1  0.67704531  0.79224925  0.58049584  1
  Li  Li45  1  0.82295469  0.20775075  0.08049584  1
  Li  Li46  1  0.32295469  0.29224925  0.41950416  1
  Li  Li47  1  0.17704531  0.70775075  0.91950416  1
