# generated using pymatgen
data_LiF
_symmetry_space_group_name_H-M   'P 1'
_cell_length_a   2.88551766
_cell_length_b   8.02209127
_cell_length_c   13.45177064
_cell_angle_alpha   90.00000000
_cell_angle_beta   90.00000000
_cell_angle_gamma   90.00000000
_symmetry_Int_Tables_number   1
_chemical_formula_structural   LiF
_chemical_formula_sum   'Li16 F16'
_cell_volume   311.38005360
_cell_formula_units_Z   16
loop_
 _symmetry_equiv_pos_site_id
 _symmetry_equiv_pos_as_xyz
  1  'x, y, z'
loop_
 _atom_site_type_symbol
 _atom_site_label
 _atom_site_symmetry_multiplicity
 _atom_site_fract_x
 _atom_site_fract_y
 _atom_site_fract_z
 _atom_site_occupancy
  F  F0  1  0.54371601  0.42954589  0.59793478  1
  F  F1  1  -0.54371601  -0.42954589  0.59793478  1
  F  F2  1  -0.04371601  0.92954589  -0.59793478  1
  F  F3  1  1.04371601  0.07045411  -0.59793478  1
  F  F4  1  -0.54371601  -0.42954589  -0.59793478  1
  F  F5  1  0.54371601  0.42954589  -0.59793478  1
  F  F6  1  1.04371601  0.07045411  0.59793478  1
  F  F7  1  -0.04371601  0.92954589  0.59793478  1
  F  F8  1  0.00000000  0.00000000  0.00000000  1
  F  F9  1  0.50000000  0.50000000  0.00000000  1
  F  F10  1  0.00000000  0.50000000  0.55026510  1
  F  F11  1  0.50000000  0.00000000  0.44973490  1
  F  F12  1  0.00000000  0.50000000  0.44973490  1
  F  F13  1  0.50000000  0.00000000  0.55026510  1
  F  F14  1  0.00000000  0.50000000  0.00000000  1
  F  F15  1  0.50000000  0.00000000  0.00000000  1
  Li  Li16  1  0.99662033  0.19946736  0.30927826  1
  Li  Li17  1  0.00337967  0.80053264  0.30927826  1
  Li  Li18  1  0.50337967  0.69946736  0.69072174  1
  Li  Li19  1  0.49662033  0.30053264  0.69072174  1
  Li  Li20  1  0.00337967  0.80053264  0.69072174  1
  Li  Li21  1  0.99662033  0.19946736  0.69072174  1
  Li  Li22  1  0.49662033  0.30053264  0.30927826  1
  Li  Li23  1  0.50337967  0.69946736  0.30927826  1
  Li  Li24  1  0.73492303  0.78201747  0.50000000  1
  Li  Li25  1  0.26507697  0.21798253  0.50000000  1
  Li  Li26  1  0.76507697  0.28201747  0.50000000  1
  Li  Li27  1  0.23492303  0.71798253  0.50000000  1
  Li  Li28  1  0.00000000  0.50000000  0.85363216  1
  Li  Li29  1  0.50000000  0.00000000  0.14636784  1
  Li  Li30  1  0.00000000  0.50000000  0.14636784  1
  Li  Li31  1  0.50000000  0.00000000  0.85363216  1
