# generated using pymatgen
data_LiF
_symmetry_space_group_name_H-M   'P 1'
_cell_length_a   5.87408645
_cell_length_b   4.85851253
_cell_length_c   8.04640871
_cell_angle_alpha   90.00000000
_cell_angle_beta   90.00000000
_cell_angle_gamma   90.00000000
_symmetry_Int_Tables_number   1
_chemical_formula_structural   LiF
_chemical_formula_sum   'Li16 F16'
_cell_volume   229.63905403
_cell_formula_units_Z   16
loop_
 _symmetry_equiv_pos_site_id
 _symmetry_equiv_pos_as_xyz
  1  'x, y, z'
loop_
 _atom_site_type_symbol
 _atom_site_label
 _atom_site_symmetry_multiplicity
 _atom_site_fract_x
 _atom_site_fract_y
 _atom_site_fract_z
 _atom_site_occupancy
  F  F0  1  0.00000000  0.00000000  0.50000000  1
  F  F1  1  0.50000000  0.50000000  0.50000000  1
  F  F2  1  0.07588510  0.25641338  0.00000000  1
  F  F3  1  0.92411490  0.74358662  0.00000000  1
  F  F4  1  0.42411490  0.75641338  0.00000000  1
  F  F5  1  0.57588510  0.24358662  0.00000000  1
  F  F6  1  0.00000000  0.50000000  0.50000000  1
  F  F7  1  0.50000000  0.00000000  0.50000000  1
  F  F8  1  0.24268520  0.72256022  0.29626727  1
  F  F9  1  -0.24268520  -0.72256022  0.29626727  1
  F  F10  1  0.25731480  1.22256022  -0.29626727  1
  F  F11  1  0.74268520  -0.22256022  -0.29626727  1
  F  F12  1  -0.24268520  -0.72256022  -0.29626727  1
  F  F13  1  0.24268520  0.72256022  -0.29626727  1
  F  F14  1  0.74268520  -0.22256022  0.29626727  1
  F  F15  1  0.25731480  1.22256022  0.29626727  1
  Li  Li16  1  0.98605091  0.18325688  0.65957908  1
  Li  Li17  1  0.01394909  0.81674312  0.65957908  1
  Li  Li18  1  0.51394909  0.68325688  0.34042092  1
  Li  Li19  1  0.48605091  0.31674312  0.34042092  1
  Li  Li20  1  0.01394909  0.81674312  0.34042092  1
  Li  Li21  1  0.98605091  0.18325688  0.34042092  1
  Li  Li22  1  0.48605091  0.31674312  0.65957908  1
  Li  Li23  1  0.51394909  0.68325688  0.65957908  1
  Li  Li24  1  0.27696137  0.38972024  0.17234816  1
  Li  Li25  1  0.72303863  0.61027976  0.17234816  1
  Li  Li26  1  0.22303863  0.88972024  0.82765184  1
  Li  Li27  1  0.77696137  0.11027976  0.82765184  1
  Li  Li28  1  0.72303863  0.61027976  0.82765184  1
  Li  Li29  1  0.27696137  0.38972024  0.82765184  1
  Li  Li30  1  0.77696137  0.11027976  0.17234816  1
  Li  Li31  1  0.22303863  0.88972024  0.17234816  1
