# generated using pymatgen
data_Li2Y2As4P3Se2
_symmetry_space_group_name_H-M   'P 1'
_cell_length_a   4.76631543
_cell_length_b   4.98907805
_cell_length_c   6.92216848
_cell_angle_alpha   94.86128374
_cell_angle_beta   100.73464225
_cell_angle_gamma   109.70427686
_symmetry_Int_Tables_number   1
_chemical_formula_structural   Li2Y2As4P3Se2
_chemical_formula_sum   'Li2 Y2 As4 P3 Se2'
_cell_volume   150.30604172
_cell_formula_units_Z   1
loop_
 _symmetry_equiv_pos_site_id
 _symmetry_equiv_pos_as_xyz
  1  'x, y, z'
loop_
 _atom_site_type_symbol
 _atom_site_label
 _atom_site_symmetry_multiplicity
 _atom_site_fract_x
 _atom_site_fract_y
 _atom_site_fract_z
 _atom_site_occupancy
  Se  Se0  1  0.12500000  0.00000000  0.25000000  1
  Se  Se1  1  0.00000000  0.00000000  0.00000000  1
  Y  Y2  1  0.37500000  0.00000000  0.25000000  1
  Y  Y3  1  0.25000000  0.25000000  0.25000000  1
  P  P4  1  0.00000000  0.25000000  0.12500000  1
  P  P5  1  0.98870208  0.71553731  0.52953721  1
  P  P6  1  0.75899472  0.80656222  0.35555859  1
  As  As7  1  0.31902065  0.05117062  0.22584052  1
  As  As8  1  0.65592686  0.18109313  0.01952644  1
  As  As9  1  0.21568922  0.69948383  0.86846269  1
  As  As10  1  0.02773859  0.99126905  0.65542796  1
  Li  Li11  1  0.01048844  0.45021763  0.46876657  1
  Li  Li12  1  0.43745109  0.49759040  0.27973826  1
