# generated using pymatgen
data_Li2Te4MoP2Se
_symmetry_space_group_name_H-M   'P 1'
_cell_length_a   5.18982100
_cell_length_b   5.37937724
_cell_length_c   6.97357748
_cell_angle_alpha   94.02115067
_cell_angle_beta   99.00948619
_cell_angle_gamma   106.45594878
_symmetry_Int_Tables_number   1
_chemical_formula_structural   Li2Te4MoP2Se
_chemical_formula_sum   'Li2 Te4 Mo1 P2 Se1'
_cell_volume   183.05796506
_cell_formula_units_Z   1
loop_
 _symmetry_equiv_pos_site_id
 _symmetry_equiv_pos_as_xyz
  1  'x, y, z'
loop_
 _atom_site_type_symbol
 _atom_site_label
 _atom_site_symmetry_multiplicity
 _atom_site_fract_x
 _atom_site_fract_y
 _atom_site_fract_z
 _atom_site_occupancy
  Se  Se0  1  0.00000000  0.00000000  0.00000000  1
  Te  Te1  1  0.50000000  0.50000000  0.50000000  1
  Te  Te2  1  0.25000000  0.25000000  0.25000000  1
  Te  Te3  1  0.75000000  0.25000000  0.00000000  1
  Te  Te4  1  0.25000000  0.75000000  0.50000000  1
  P  P5  1  0.93467464  0.89303814  0.16201625  1
  P  P6  1  0.11222696  0.65360712  0.37597747  1
  Mo  Mo7  1  0.01587776  0.66055410  0.08378184  1
  Li  Li8  1  0.01686584  0.31276902  0.19913681  1
  Li  Li9  1  0.47159208  0.14085407  0.53134929  1
