# generated using pymatgen
data_LiF
_symmetry_space_group_name_H-M   'P 1'
_cell_length_a   10.82337341
_cell_length_b   10.82337341
_cell_length_c   15.70328127
_cell_angle_alpha   90.00000000
_cell_angle_beta   90.00000000
_cell_angle_gamma   120.00000000
_symmetry_Int_Tables_number   1
_chemical_formula_structural   LiF
_chemical_formula_sum   'Li45 F45'
_cell_volume   1593.11206062
_cell_formula_units_Z   45
loop_
 _symmetry_equiv_pos_site_id
 _symmetry_equiv_pos_as_xyz
  1  'x, y, z'
loop_
 _atom_site_type_symbol
 _atom_site_label
 _atom_site_symmetry_multiplicity
 _atom_site_fract_x
 _atom_site_fract_y
 _atom_site_fract_z
 _atom_site_occupancy
  F  F0  1  0.04395566  0.94237057  0.58236184  1
  F  F1  1  0.05762943  0.10158509  0.58236184  1
  F  F2  1  0.89841491  0.95604434  0.58236184  1
  F  F3  1  0.05762943  0.95604434  0.41763816  1
  F  F4  1  0.89841491  0.94237057  0.41763816  1
  F  F5  1  0.04395566  0.10158509  0.41763816  1
  F  F6  1  0.18055838  0.81747464  0.95119908  1
  F  F7  1  0.18252536  0.36308374  0.95119908  1
  F  F8  1  0.63691626  0.81944162  0.95119908  1
  F  F9  1  0.18252536  0.81944162  0.04880092  1
  F  F10  1  0.63691626  0.81747464  0.04880092  1
  F  F11  1  0.18055838  0.36308374  0.04880092  1
  F  F12  1  0.24651737  0.10013647  0.87917260  1
  F  F13  1  0.89986353  0.14638090  0.87917260  1
  F  F14  1  0.85361910  0.75348263  0.87917260  1
  F  F15  1  0.89986353  0.75348263  0.12082740  1
  F  F16  1  0.85361910  0.10013647  0.12082740  1
  F  F17  1  0.24651737  0.14638090  0.12082740  1
  F  F18  1  0.33333333  0.66666667  0.33910384  1
  F  F19  1  0.33333333  0.66666667  0.66089616  1
  F  F20  1  0.66666667  0.33333333  0.40147850  1
  F  F21  1  0.66666667  0.33333333  0.59852150  1
  F  F22  1  0.00000000  0.00000000  0.77044991  1
  F  F23  1  0.00000000  0.00000000  0.22955009  1
  F  F24  1  0.44397675  0.74054995  0.53860194  1
  F  F25  1  0.25945005  0.70342680  0.53860194  1
  F  F26  1  0.29657320  0.55602325  0.53860194  1
  F  F27  1  0.25945005  0.55602325  0.46139806  1
  F  F28  1  0.29657320  0.74054995  0.46139806  1
  F  F29  1  0.44397675  0.70342680  0.46139806  1
  F  F30  1  0.33333333  0.66666667  0.60872920  1
  F  F31  1  0.33333333  0.66666667  0.39127080  1
  F  F32  1  0.29068810  0.94907726  0.66168931  1
  F  F33  1  0.05092274  0.34161084  0.66168931  1
  F  F34  1  0.65838916  0.70931190  0.66168931  1
  F  F35  1  0.05092274  0.70931190  0.33831069  1
  F  F36  1  0.65838916  0.94907726  0.33831069  1
  F  F37  1  0.29068810  0.34161084  0.33831069  1
  F  F38  1  0.16408615  0.69079229  0.85256627  1
  F  F39  1  0.30920771  0.47329386  0.85256627  1
  F  F40  1  0.52670614  0.83591385  0.85256627  1
  F  F41  1  0.30920771  0.83591385  0.14743373  1
  F  F42  1  0.52670614  0.69079229  0.14743373  1
  F  F43  1  0.16408615  0.47329386  0.14743373  1
  F  F44  1  0.00000000  0.00000000  0.00000000  1
  Li  Li45  1  0.33333333  0.66666667  0.00000000  1
  Li  Li46  1  0.86415956  0.55369294  0.87131973  1
  Li  Li47  1  -0.55369294  0.31046662  0.87131973  1
  Li  Li48  1  -0.31046662  -0.86415956  0.87131973  1
  Li  Li49  1  -0.55369294  -0.86415956  -0.87131973  1
  Li  Li50  1  -0.31046662  0.55369294  -0.87131973  1
  Li  Li51  1  0.86415956  0.31046662  -0.87131973  1
  Li  Li52  1  0.66666667  0.33333333  0.50000000  1
  Li  Li53  1  0.49674774  0.48618115  0.60062759  1
  Li  Li54  1  0.51381885  0.01056659  0.60062759  1
  Li  Li55  1  0.98943341  0.50325226  0.60062759  1
  Li  Li56  1  0.51381885  0.50325226  0.39937241  1
  Li  Li57  1  0.98943341  0.48618115  0.39937241  1
  Li  Li58  1  0.49674774  0.01056659  0.39937241  1
  Li  Li59  1  0.00000000  0.00000000  0.35353164  1
  Li  Li60  1  0.00000000  0.00000000  0.64646836  1
  Li  Li61  1  0.45335513  0.51310267  0.08789970  1
  Li  Li62  1  0.48689733  0.94025246  0.08789970  1
  Li  Li63  1  0.05974754  0.54664487  0.08789970  1
  Li  Li64  1  0.48689733  0.54664487  0.91210030  1
  Li  Li65  1  0.05974754  0.51310267  0.91210030  1
  Li  Li66  1  0.45335513  0.94025246  0.91210030  1
  Li  Li67  1  0.00000000  0.00000000  0.50000000  1
  Li  Li68  1  0.34295421  0.07533771  0.39164167  1
  Li  Li69  1  0.92466229  0.26761650  0.39164167  1
  Li  Li70  1  0.73238350  0.65704579  0.39164167  1
  Li  Li71  1  0.92466229  0.65704579  0.60835833  1
  Li  Li72  1  0.73238350  0.07533771  0.60835833  1
  Li  Li73  1  0.34295421  0.26761650  0.60835833  1
  Li  Li74  1  0.61043147  0.38323078  0.07618858  1
  Li  Li75  1  0.61676922  0.22720069  0.07618858  1
  Li  Li76  1  0.77279931  0.38956853  0.07618858  1
  Li  Li77  1  0.61676922  0.38956853  0.92381142  1
  Li  Li78  1  0.77279931  0.38323078  0.92381142  1
  Li  Li79  1  0.61043147  0.22720069  0.92381142  1
  Li  Li80  1  0.72791273  0.28488293  0.41247320  1
  Li  Li81  1  0.71511707  0.44302980  0.41247320  1
  Li  Li82  1  0.55697020  0.27208727  0.41247320  1
  Li  Li83  1  0.71511707  0.27208727  0.58752680  1
  Li  Li84  1  0.55697020  0.28488293  0.58752680  1
  Li  Li85  1  0.72791273  0.44302980  0.58752680  1
  Li  Li86  1  0.33333333  0.66666667  0.50000000  1
  Li  Li87  1  0.12658680  0.87341320  0.50000000  1
  Li  Li88  1  0.12658680  0.25317360  0.50000000  1
  Li  Li89  1  0.74682640  0.87341320  0.50000000  1
