# generated using pymatgen
data_LiY2Cu3P2Se
_symmetry_space_group_name_H-M   'P 1'
_cell_length_a   4.82216609
_cell_length_b   4.80907259
_cell_length_c   6.74032230
_cell_angle_alpha   94.86626715
_cell_angle_beta   99.63451584
_cell_angle_gamma   108.03530490
_symmetry_Int_Tables_number   1
_chemical_formula_structural   LiY2Cu3P2Se
_chemical_formula_sum   'Li1 Y2 Cu3 P2 Se1'
_cell_volume   144.96756990
_cell_formula_units_Z   1
loop_
 _symmetry_equiv_pos_site_id
 _symmetry_equiv_pos_as_xyz
  1  'x, y, z'
loop_
 _atom_site_type_symbol
 _atom_site_label
 _atom_site_symmetry_multiplicity
 _atom_site_fract_x
 _atom_site_fract_y
 _atom_site_fract_z
 _atom_site_occupancy
  P  P0  1  0.00000000  0.00000000  0.00000000  1
  P  P1  1  0.50000000  0.50000000  0.50000000  1
  Se  Se2  1  0.50000000  0.50000000  0.00000000  1
  Li  Li3  1  0.50000000  0.00000000  0.50000000  1
  Y  Y4  1  0.00000000  0.50000000  0.50000000  1
  Y  Y5  1  0.51676677  0.74520076  0.36230178  1
  Cu  Cu6  1  0.92934796  0.40380541  0.64324864  1
  Cu  Cu7  1  0.52608312  0.63477813  0.94742533  1
  Cu  Cu8  1  0.57854975  0.68208773  0.66912341  1
