# generated using pymatgen
data_Li3Y2As4P3Se2
_symmetry_space_group_name_H-M   'P 1'
_cell_length_a   4.94768039
_cell_length_b   5.11596563
_cell_length_c   7.01121749
_cell_angle_alpha   94.79808216
_cell_angle_beta   100.44922543
_cell_angle_gamma   109.27198906
_symmetry_Int_Tables_number   1
_chemical_formula_structural   Li3Y2As4P3Se2
_chemical_formula_sum   'Li3 Y2 As4 P3 Se2'
_cell_volume   162.76554401
_cell_formula_units_Z   1
loop_
 _symmetry_equiv_pos_site_id
 _symmetry_equiv_pos_as_xyz
  1  'x, y, z'
loop_
 _atom_site_type_symbol
 _atom_site_label
 _atom_site_symmetry_multiplicity
 _atom_site_fract_x
 _atom_site_fract_y
 _atom_site_fract_z
 _atom_site_occupancy
  Se  Se0  1  0.00000000  0.00000000  0.00000000  1
  Se  Se1  1  0.50000000  0.50000000  0.50000000  1
  Y  Y2  1  0.50000000  0.50000000  0.00000000  1
  Y  Y3  1  0.50000000  0.00000000  0.50000000  1
  P  P4  1  0.00000000  0.50000000  0.50000000  1
  P  P5  1  0.15253426  0.00718519  0.51533671  1
  P  P6  1  0.29802790  0.89157533  0.66165466  1
  As  As7  1  0.04563102  0.28953208  0.73664555  1
  As  As8  1  0.53350923  0.65663938  0.84016215  1
  As  As9  1  0.19904960  0.17833831  0.75416718  1
  As  As10  1  0.66641404  0.33432370  0.53105282  1
  Li  Li11  1  0.97507787  0.48820916  0.19057743  1
  Li  Li12  1  0.55678928  0.37126460  0.13098345  1
  Li  Li13  1  0.77299563  0.23914779  0.18750644  1
