# generated using pymatgen
data_LiF
_symmetry_space_group_name_H-M   'P 1'
_cell_length_a   8.17832879
_cell_length_b   8.17832879
_cell_length_c   9.63531205
_cell_angle_alpha   90.00000000
_cell_angle_beta   90.00000000
_cell_angle_gamma   120.00000000
_symmetry_Int_Tables_number   1
_chemical_formula_structural   LiF
_chemical_formula_sum   'Li14 F14'
_cell_volume   558.11738256
_cell_formula_units_Z   14
loop_
 _symmetry_equiv_pos_site_id
 _symmetry_equiv_pos_as_xyz
  1  'x, y, z'
loop_
 _atom_site_type_symbol
 _atom_site_label
 _atom_site_symmetry_multiplicity
 _atom_site_fract_x
 _atom_site_fract_y
 _atom_site_fract_z
 _atom_site_occupancy
  F  F0  1  0.33333333  0.66666667  0.30571994  1
  F  F1  1  0.66666667  0.33333333  0.80571994  1
  F  F2  1  0.66666667  0.33333333  0.69428006  1
  F  F3  1  0.33333333  0.66666667  0.19428006  1
  F  F4  1  0.00000000  0.00000000  0.25000000  1
  F  F5  1  0.00000000  0.00000000  0.75000000  1
  F  F6  1  0.50000000  -0.00000000  0.00000000  1
  F  F7  1  0.00000000  0.50000000  -0.00000000  1
  F  F8  1  0.50000000  0.50000000  0.00000000  1
  F  F9  1  0.50000000  -0.00000000  0.50000000  1
  F  F10  1  0.00000000  0.50000000  0.50000000  1
  F  F11  1  0.50000000  0.50000000  0.50000000  1
  F  F12  1  0.66666667  0.33333333  0.25000000  1
  F  F13  1  0.33333333  0.66666667  0.75000000  1
  Li  Li14  1  0.33333333  0.66666667  0.43464063  1
  Li  Li15  1  0.66666667  0.33333333  0.93464063  1
  Li  Li16  1  0.66666667  0.33333333  0.56535937  1
  Li  Li17  1  0.33333333  0.66666667  0.06535937  1
  Li  Li18  1  0.10834823  0.52566659  0.25000000  1
  Li  Li19  1  0.47433341  0.58268165  0.25000000  1
  Li  Li20  1  0.41731835  0.89165177  0.25000000  1
  Li  Li21  1  0.89165177  0.47433341  0.75000000  1
  Li  Li22  1  0.52566659  0.41731835  0.75000000  1
  Li  Li23  1  0.58268165  0.10834823  0.75000000  1
  Li  Li24  1  0.00000000  0.00000000  0.57946981  1
  Li  Li25  1  0.00000000  0.00000000  0.07946981  1
  Li  Li26  1  0.00000000  0.00000000  0.42053019  1
  Li  Li27  1  0.00000000  0.00000000  0.92053019  1
