# generated using pymatgen
data_LiF
_symmetry_space_group_name_H-M   'P 1'
_cell_length_a   11.11987451
_cell_length_b   11.11987451
_cell_length_c   10.20439054
_cell_angle_alpha   90.00000000
_cell_angle_beta   90.00000000
_cell_angle_gamma   120.00000000
_symmetry_Int_Tables_number   1
_chemical_formula_structural   LiF
_chemical_formula_sum   'Li34 F34'
_cell_volume   1092.74159702
_cell_formula_units_Z   34
loop_
 _symmetry_equiv_pos_site_id
 _symmetry_equiv_pos_as_xyz
  1  'x, y, z'
loop_
 _atom_site_type_symbol
 _atom_site_label
 _atom_site_symmetry_multiplicity
 _atom_site_fract_x
 _atom_site_fract_y
 _atom_site_fract_z
 _atom_site_occupancy
  F  F0  1  0.68868893  0.16679350  0.93085373  1
  F  F1  1  0.83320650  0.52189542  0.93085373  1
  F  F2  1  0.47810458  0.31131107  0.93085373  1
  F  F3  1  0.83320650  0.31131107  0.06914627  1
  F  F4  1  0.47810458  0.16679350  0.06914627  1
  F  F5  1  0.68868893  0.52189542  0.06914627  1
  F  F6  1  0.27572013  0.57927306  0.79134638  1
  F  F7  1  0.42072694  0.69644708  0.79134638  1
  F  F8  1  0.30355292  0.72427987  0.79134638  1
  F  F9  1  0.42072694  0.72427987  0.20865362  1
  F  F10  1  0.30355292  0.57927306  0.20865362  1
  F  F11  1  0.27572013  0.69644708  0.20865362  1
  F  F12  1  0.39636670  0.34381978  0.98067648  1
  F  F13  1  0.65618022  0.05254692  0.98067648  1
  F  F14  1  0.94745308  0.60363330  0.98067648  1
  F  F15  1  0.65618022  0.60363330  0.01932352  1
  F  F16  1  0.94745308  0.34381978  0.01932352  1
  F  F17  1  0.39636670  0.05254692  0.01932352  1
  F  F18  1  0.14296902  0.55114003  0.35302461  1
  F  F19  1  0.44885997  0.59182899  0.35302461  1
  F  F20  1  0.40817101  0.85703098  0.35302461  1
  F  F21  1  0.44885997  0.85703098  0.64697539  1
  F  F22  1  0.40817101  0.55114003  0.64697539  1
  F  F23  1  0.14296902  0.59182899  0.64697539  1
  F  F24  1  0.00000000  0.00000000  0.73703023  1
  F  F25  1  0.00000000  0.00000000  0.26296977  1
  F  F26  1  0.00441826  0.24798253  0.31698378  1
  F  F27  1  0.75201747  0.75643573  0.31698378  1
  F  F28  1  0.24356427  0.99558174  0.31698378  1
  F  F29  1  0.75201747  0.99558174  0.68301622  1
  F  F30  1  0.24356427  0.24798253  0.68301622  1
  F  F31  1  0.00441826  0.75643573  0.68301622  1
  F  F32  1  0.33333333  0.66666667  0.50000000  1
  F  F33  1  0.66666667  0.33333333  0.00000000  1
  Li  Li34  1  0.66666667  0.33333333  0.36403776  1
  Li  Li35  1  0.66666667  0.33333333  0.63596224  1
  Li  Li36  1  0.27848559  0.72151441  0.50000000  1
  Li  Li37  1  0.27848559  0.55697118  0.50000000  1
  Li  Li38  1  0.44302882  0.72151441  0.50000000  1
  Li  Li39  1  0.68154163  0.62592486  0.56316610  1
  Li  Li40  1  -0.62592486  0.05561677  0.56316610  1
  Li  Li41  1  -0.05561677  -0.68154163  0.56316610  1
  Li  Li42  1  -0.62592486  -0.68154163  -0.56316610  1
  Li  Li43  1  -0.05561677  0.62592486  -0.56316610  1
  Li  Li44  1  0.68154163  0.05561677  -0.56316610  1
  Li  Li45  1  0.00843996  0.57766342  0.15320480  1
  Li  Li46  1  0.42233658  0.43077655  0.15320480  1
  Li  Li47  1  0.56922345  0.99156004  0.15320480  1
  Li  Li48  1  0.42233658  0.99156004  0.84679520  1
  Li  Li49  1  0.56922345  0.57766342  0.84679520  1
  Li  Li50  1  0.00843996  0.43077655  0.84679520  1
  Li  Li51  1  0.00000000  0.00000000  0.50000000  1
  Li  Li52  1  0.06950147  0.35867779  0.61351577  1
  Li  Li53  1  0.64132221  0.71082368  0.61351577  1
  Li  Li54  1  0.28917632  0.93049853  0.61351577  1
  Li  Li55  1  0.64132221  0.93049853  0.38648423  1
  Li  Li56  1  0.28917632  0.35867779  0.38648423  1
  Li  Li57  1  0.06950147  0.71082368  0.38648423  1
  Li  Li58  1  0.96126327  0.30262699  0.09323956  1
  Li  Li59  1  0.69737301  0.65863628  0.09323956  1
  Li  Li60  1  0.34136372  0.03873673  0.09323956  1
  Li  Li61  1  0.69737301  0.03873673  0.90676044  1
  Li  Li62  1  0.34136372  0.30262699  0.90676044  1
  Li  Li63  1  0.96126327  0.65863628  0.90676044  1
  Li  Li64  1  0.19627229  0.80372771  0.50000000  1
  Li  Li65  1  0.19627229  0.39254457  0.50000000  1
  Li  Li66  1  0.60745543  0.80372771  0.50000000  1
  Li  Li67  1  0.33333333  0.66666667  0.00000000  1
