# generated using pymatgen
data_LiF
_symmetry_space_group_name_H-M   'P 1'
_cell_length_a   6.56741428
_cell_length_b   6.56741428
_cell_length_c   16.80384378
_cell_angle_alpha   90.00000000
_cell_angle_beta   90.00000000
_cell_angle_gamma   120.00000000
_symmetry_Int_Tables_number   1
_chemical_formula_structural   LiF
_chemical_formula_sum   'Li20 F20'
_cell_volume   627.66526129
_cell_formula_units_Z   20
loop_
 _symmetry_equiv_pos_site_id
 _symmetry_equiv_pos_as_xyz
  1  'x, y, z'
loop_
 _atom_site_type_symbol
 _atom_site_label
 _atom_site_symmetry_multiplicity
 _atom_site_fract_x
 _atom_site_fract_y
 _atom_site_fract_z
 _atom_site_occupancy
  F  F0  1  0.90801803  0.09983396  0.85159080  1
  F  F1  1  0.90016604  0.80818408  0.85159080  1
  F  F2  1  0.19181592  0.09198197  0.85159080  1
  F  F3  1  0.90016604  0.09198197  0.14840920  1
  F  F4  1  0.19181592  0.09983396  0.14840920  1
  F  F5  1  0.90801803  0.80818408  0.14840920  1
  F  F6  1  0.71067129  0.09718829  0.52916653  1
  F  F7  1  0.90281171  0.61348300  0.52916653  1
  F  F8  1  0.38651700  0.28932871  0.52916653  1
  F  F9  1  0.90281171  0.28932871  0.47083347  1
  F  F10  1  0.38651700  0.09718829  0.47083347  1
  F  F11  1  0.71067129  0.61348300  0.47083347  1
  F  F12  1  0.29310159  0.73143320  0.65974787  1
  F  F13  1  0.26856680  0.56166839  0.65974787  1
  F  F14  1  0.43833161  0.70689841  0.65974787  1
  F  F15  1  0.26856680  0.70689841  0.34025213  1
  F  F16  1  0.43833161  0.73143320  0.34025213  1
  F  F17  1  0.29310159  0.56166839  0.34025213  1
  F  F18  1  0.66666667  0.33333333  0.28187946  1
  F  F19  1  0.66666667  0.33333333  0.71812054  1
  Li  Li20  1  0.88544109  0.69746055  0.23666847  1
  Li  Li21  1  -0.69746055  0.18798055  0.23666847  1
  Li  Li22  1  -0.18798055  -0.88544109  0.23666847  1
  Li  Li23  1  -0.69746055  -0.88544109  -0.23666847  1
  Li  Li24  1  -0.18798055  0.69746055  -0.23666847  1
  Li  Li25  1  0.88544109  0.18798055  -0.23666847  1
  Li  Li26  1  0.33333333  0.66666667  0.50000000  1
  Li  Li27  1  0.21742923  0.71183200  0.24531899  1
  Li  Li28  1  0.28816800  0.50559723  0.24531899  1
  Li  Li29  1  0.49440277  0.78257077  0.24531899  1
  Li  Li30  1  0.28816800  0.78257077  0.75468101  1
  Li  Li31  1  0.49440277  0.71183200  0.75468101  1
  Li  Li32  1  0.21742923  0.50559723  0.75468101  1
  Li  Li33  1  0.00000000  0.00000000  0.00000000  1
  Li  Li34  1  0.14554630  0.23986190  0.70784578  1
  Li  Li35  1  0.76013810  0.90568440  0.70784578  1
  Li  Li36  1  0.09431560  0.85445370  0.70784578  1
  Li  Li37  1  0.76013810  0.85445370  0.29215422  1
  Li  Li38  1  0.09431560  0.23986190  0.29215422  1
  Li  Li39  1  0.14554630  0.90568440  0.29215422  1
