# generated using pymatgen
data_LiF
_symmetry_space_group_name_H-M   'P 1'
_cell_length_a   6.64616279
_cell_length_b   6.64616279
_cell_length_c   15.59970621
_cell_angle_alpha   90.00000000
_cell_angle_beta   90.00000000
_cell_angle_gamma   120.00000000
_symmetry_Int_Tables_number   1
_chemical_formula_structural   LiF
_chemical_formula_sum   'Li30 F30'
_cell_volume   596.74529107
_cell_formula_units_Z   30
loop_
 _symmetry_equiv_pos_site_id
 _symmetry_equiv_pos_as_xyz
  1  'x, y, z'
loop_
 _atom_site_type_symbol
 _atom_site_label
 _atom_site_symmetry_multiplicity
 _atom_site_fract_x
 _atom_site_fract_y
 _atom_site_fract_z
 _atom_site_occupancy
  F  F0  1  0.04770457  0.58180057  0.05413695  1
  F  F1  1  -0.58180057  -0.53409600  0.05413695  1
  F  F2  1  0.53409600  -0.04770457  0.05413695  1
  F  F3  1  -0.04770457  -0.58180057  0.55413695  1
  F  F4  1  0.58180057  0.53409600  0.55413695  1
  F  F5  1  -0.53409600  0.04770457  0.55413695  1
  F  F6  1  -0.04770457  -0.58180057  -0.05413695  1
  F  F7  1  0.58180057  0.53409600  -0.05413695  1
  F  F8  1  -0.53409600  0.04770457  -0.05413695  1
  F  F9  1  0.04770457  0.58180057  0.44586305  1
  F  F10  1  -0.58180057  -0.53409600  0.44586305  1
  F  F11  1  0.53409600  -0.04770457  0.44586305  1
  F  F12  1  0.91579631  0.27245117  0.48468727  1
  F  F13  1  0.72754883  0.64334513  0.48468727  1
  F  F14  1  0.35665487  0.08420369  0.48468727  1
  F  F15  1  0.08420369  0.72754883  0.98468727  1
  F  F16  1  0.27245117  0.35665487  0.98468727  1
  F  F17  1  0.64334513  0.91579631  0.98468727  1
  F  F18  1  0.08420369  0.72754883  0.51531273  1
  F  F19  1  0.27245117  0.35665487  0.51531273  1
  F  F20  1  0.64334513  0.91579631  0.51531273  1
  F  F21  1  0.91579631  0.27245117  0.01531273  1
  F  F22  1  0.72754883  0.64334513  0.01531273  1
  F  F23  1  0.35665487  0.08420369  0.01531273  1
  F  F24  1  0.50000000  0.00000000  -0.00000000  1
  F  F25  1  0.00000000  0.50000000  0.00000000  1
  F  F26  1  0.50000000  0.50000000  0.00000000  1
  F  F27  1  0.50000000  0.00000000  0.50000000  1
  F  F28  1  0.00000000  0.50000000  0.50000000  1
  F  F29  1  0.50000000  0.50000000  0.50000000  1
  Li  Li30  1  0.17032495  0.31399802  0.64327884  1
  Li  Li31  1  0.68600198  0.85632693  0.64327884  1
  Li  Li32  1  0.14367307  0.82967505  0.64327884  1
  Li  Li33  1  0.82967505  0.68600198  0.14327884  1
  Li  Li34  1  0.31399802  0.14367307  0.14327884  1
  Li  Li35  1  0.85632693  0.17032495  0.14327884  1
  Li  Li36  1  0.82967505  0.68600198  0.35672116  1
  Li  Li37  1  0.31399802  0.14367307  0.35672116  1
  Li  Li38  1  0.85632693  0.17032495  0.35672116  1
  Li  Li39  1  0.17032495  0.31399802  0.85672116  1
  Li  Li40  1  0.68600198  0.85632693  0.85672116  1
  Li  Li41  1  0.14367307  0.82967505  0.85672116  1
  Li  Li42  1  0.33333333  0.66666667  0.25000000  1
  Li  Li43  1  0.66666667  0.33333333  0.75000000  1
  Li  Li44  1  0.00000000  0.00000000  0.40333385  1
  Li  Li45  1  0.00000000  0.00000000  0.90333385  1
  Li  Li46  1  0.00000000  0.00000000  0.59666615  1
  Li  Li47  1  0.00000000  0.00000000  0.09666615  1
  Li  Li48  1  0.61365922  0.41438478  0.06648526  1
  Li  Li49  1  0.58561522  0.19927444  0.06648526  1
  Li  Li50  1  0.80072556  0.38634078  0.06648526  1
  Li  Li51  1  0.38634078  0.58561522  0.56648526  1
  Li  Li52  1  0.41438478  0.80072556  0.56648526  1
  Li  Li53  1  0.19927444  0.61365922  0.56648526  1
  Li  Li54  1  0.38634078  0.58561522  0.93351474  1
  Li  Li55  1  0.41438478  0.80072556  0.93351474  1
  Li  Li56  1  0.19927444  0.61365922  0.93351474  1
  Li  Li57  1  0.61365922  0.41438478  0.43351474  1
  Li  Li58  1  0.58561522  0.19927444  0.43351474  1
  Li  Li59  1  0.80072556  0.38634078  0.43351474  1
