# generated using pymatgen
data_LiF
_symmetry_space_group_name_H-M   'P 1'
_cell_length_a   11.38352862
_cell_length_b   10.09063228
_cell_length_c   10.35520287
_cell_angle_alpha   90.00000000
_cell_angle_beta   90.00000000
_cell_angle_gamma   90.00000000
_symmetry_Int_Tables_number   1
_chemical_formula_structural   LiF
_chemical_formula_sum   'Li44 F44'
_cell_volume   1189.47110117
_cell_formula_units_Z   44
loop_
 _symmetry_equiv_pos_site_id
 _symmetry_equiv_pos_as_xyz
  1  'x, y, z'
loop_
 _atom_site_type_symbol
 _atom_site_label
 _atom_site_symmetry_multiplicity
 _atom_site_fract_x
 _atom_site_fract_y
 _atom_site_fract_z
 _atom_site_occupancy
  F  F0  1  0.42391374  0.75313108  0.92104960  1
  F  F1  1  0.57608626  0.24686892  0.92104960  1
  F  F2  1  0.07608626  0.25313108  0.07895040  1
  F  F3  1  0.92391374  0.74686892  0.07895040  1
  F  F4  1  0.57608626  0.24686892  0.07895040  1
  F  F5  1  0.42391374  0.75313108  0.07895040  1
  F  F6  1  0.92391374  0.74686892  0.92104960  1
  F  F7  1  0.07608626  0.25313108  0.92104960  1
  F  F8  1  0.00000000  0.50000000  0.50000000  1
  F  F9  1  0.50000000  0.00000000  0.50000000  1
  F  F10  1  0.86691818  0.63973179  0.39437787  1
  F  F11  1  0.13308182  0.36026821  0.39437787  1
  F  F12  1  0.63308182  0.13973179  0.60562213  1
  F  F13  1  0.36691818  0.86026821  0.60562213  1
  F  F14  1  0.13308182  0.36026821  0.60562213  1
  F  F15  1  0.86691818  0.63973179  0.60562213  1
  F  F16  1  0.36691818  0.86026821  0.39437787  1
  F  F17  1  0.63308182  0.13973179  0.39437787  1
  F  F18  1  0.59238954  0.35656591  0.72962539  1
  F  F19  1  0.40761046  0.64343409  0.72962539  1
  F  F20  1  0.90761046  0.85656591  0.27037461  1
  F  F21  1  0.09238954  0.14343409  0.27037461  1
  F  F22  1  0.40761046  0.64343409  0.27037461  1
  F  F23  1  0.59238954  0.35656591  0.27037461  1
  F  F24  1  0.09238954  0.14343409  0.72962539  1
  F  F25  1  0.90761046  0.85656591  0.72962539  1
  F  F26  1  0.04806867  0.08315832  0.81655528  1
  F  F27  1  0.95193133  0.91684168  0.81655528  1
  F  F28  1  0.45193133  0.58315832  0.18344472  1
  F  F29  1  0.54806867  0.41684168  0.18344472  1
  F  F30  1  0.95193133  0.91684168  0.18344472  1
  F  F31  1  0.04806867  0.08315832  0.18344472  1
  F  F32  1  0.54806867  0.41684168  0.81655528  1
  F  F33  1  0.45193133  0.58315832  0.81655528  1
  F  F34  1  0.07518071  0.45980844  0.66086818  1
  F  F35  1  0.92481929  0.54019156  0.66086818  1
  F  F36  1  0.42481929  0.95980844  0.33913182  1
  F  F37  1  0.57518071  0.04019156  0.33913182  1
  F  F38  1  0.92481929  0.54019156  0.33913182  1
  F  F39  1  0.07518071  0.45980844  0.33913182  1
  F  F40  1  0.57518071  0.04019156  0.66086818  1
  F  F41  1  0.42481929  0.95980844  0.66086818  1
  F  F42  1  0.00000000  0.00000000  0.00000000  1
  F  F43  1  0.50000000  0.50000000  0.00000000  1
  Li  Li44  1  0.98282548  0.66281043  0.20980838  1
  Li  Li45  1  -0.98282548  -0.66281043  0.20980838  1
  Li  Li46  1  -0.48282548  1.16281043  -0.20980838  1
  Li  Li47  1  1.48282548  -0.16281043  -0.20980838  1
  Li  Li48  1  -0.98282548  -0.66281043  -0.20980838  1
  Li  Li49  1  0.98282548  0.66281043  -0.20980838  1
  Li  Li50  1  1.48282548  -0.16281043  0.20980838  1
  Li  Li51  1  -0.48282548  1.16281043  0.20980838  1
  Li  Li52  1  0.13001357  0.55502919  0.36924361  1
  Li  Li53  1  0.86998643  0.44497081  0.36924361  1
  Li  Li54  1  0.36998643  0.05502919  0.63075639  1
  Li  Li55  1  0.63001357  0.94497081  0.63075639  1
  Li  Li56  1  0.86998643  0.44497081  0.63075639  1
  Li  Li57  1  0.13001357  0.55502919  0.63075639  1
  Li  Li58  1  0.63001357  0.94497081  0.36924361  1
  Li  Li59  1  0.36998643  0.05502919  0.36924361  1
  Li  Li60  1  0.00000000  0.50000000  0.00000000  1
  Li  Li61  1  0.50000000  0.00000000  0.00000000  1
  Li  Li62  1  0.11602714  0.23616602  0.50000000  1
  Li  Li63  1  0.88397286  0.76383398  0.50000000  1
  Li  Li64  1  0.38397286  0.73616602  0.50000000  1
  Li  Li65  1  0.61602714  0.26383398  0.50000000  1
  Li  Li66  1  0.99194292  0.19655134  0.32215340  1
  Li  Li67  1  0.00805708  0.80344866  0.32215340  1
  Li  Li68  1  0.50805708  0.69655134  0.67784660  1
  Li  Li69  1  0.49194292  0.30344866  0.67784660  1
  Li  Li70  1  0.00805708  0.80344866  0.67784660  1
  Li  Li71  1  0.99194292  0.19655134  0.67784660  1
  Li  Li72  1  0.49194292  0.30344866  0.32215340  1
  Li  Li73  1  0.50805708  0.69655134  0.32215340  1
  Li  Li74  1  0.52236979  0.17542428  -0.00000000  1
  Li  Li75  1  0.47763021  0.82457572  0.00000000  1
  Li  Li76  1  0.97763021  0.67542428  0.00000000  1
  Li  Li77  1  0.02236979  0.32457572  0.00000000  1
  Li  Li78  1  0.18451422  0.69450734  0.24784703  1
  Li  Li79  1  0.81548578  0.30549266  0.24784703  1
  Li  Li80  1  0.31548578  0.19450734  0.75215297  1
  Li  Li81  1  0.68451422  0.80549266  0.75215297  1
  Li  Li82  1  0.81548578  0.30549266  0.75215297  1
  Li  Li83  1  0.18451422  0.69450734  0.75215297  1
  Li  Li84  1  0.68451422  0.80549266  0.24784703  1
  Li  Li85  1  0.31548578  0.19450734  0.24784703  1
  Li  Li86  1  0.00000000  0.00000000  0.50000000  1
  Li  Li87  1  0.50000000  0.50000000  0.50000000  1
