# generated using pymatgen
data_LiF
_symmetry_space_group_name_H-M   'P 1'
_cell_length_a   7.16132740
_cell_length_b   7.16132740
_cell_length_c   22.16284383
_cell_angle_alpha   90.00000000
_cell_angle_beta   90.00000000
_cell_angle_gamma   120.00000000
_symmetry_Int_Tables_number   1
_chemical_formula_structural   LiF
_chemical_formula_sum   'Li42 F42'
_cell_volume   984.33556509
_cell_formula_units_Z   42
loop_
 _symmetry_equiv_pos_site_id
 _symmetry_equiv_pos_as_xyz
  1  'x, y, z'
loop_
 _atom_site_type_symbol
 _atom_site_label
 _atom_site_symmetry_multiplicity
 _atom_site_fract_x
 _atom_site_fract_y
 _atom_site_fract_z
 _atom_site_occupancy
  F  F0  1  0.45934952  0.39068782  0.32794091  1
  F  F1  1  0.60931218  0.06866169  0.32794091  1
  F  F2  1  0.93133831  0.54065048  0.32794091  1
  F  F3  1  0.45934952  0.39068782  0.67205909  1
  F  F4  1  0.60931218  0.06866169  0.67205909  1
  F  F5  1  0.93133831  0.54065048  0.67205909  1
  F  F6  1  0.39068782  0.45934952  0.67205909  1
  F  F7  1  0.06866169  0.60931218  0.67205909  1
  F  F8  1  0.54065048  0.93133831  0.67205909  1
  F  F9  1  0.39068782  0.45934952  0.32794091  1
  F  F10  1  0.06866169  0.60931218  0.32794091  1
  F  F11  1  0.54065048  0.93133831  0.32794091  1
  F  F12  1  0.33333333  0.66666667  0.50000000  1
  F  F13  1  0.66666667  0.33333333  0.50000000  1
  F  F14  1  0.57581483  0.00000000  -0.00000000  1
  F  F15  1  0.00000000  0.57581483  0.00000000  1
  F  F16  1  0.42418517  0.42418517  -0.00000000  1
  F  F17  1  0.11022954  0.00000000  0.33773804  1
  F  F18  1  0.00000000  0.11022954  0.33773804  1
  F  F19  1  0.88977046  0.88977046  0.33773804  1
  F  F20  1  0.11022954  0.00000000  0.66226196  1
  F  F21  1  0.00000000  0.11022954  0.66226196  1
  F  F22  1  0.88977046  0.88977046  0.66226196  1
  F  F23  1  0.87075037  0.23085268  -0.00000000  1
  F  F24  1  0.76914732  0.63989770  -0.00000000  1
  F  F25  1  0.36010230  0.12924963  -0.00000000  1
  F  F26  1  0.23085268  0.87075037  0.00000000  1
  F  F27  1  0.63989770  0.76914732  -0.00000000  1
  F  F28  1  0.12924963  0.36010230  -0.00000000  1
  F  F29  1  0.39586089  0.68964087  0.70186683  1
  F  F30  1  0.31035913  0.70622002  0.70186683  1
  F  F31  1  0.29377998  0.60413911  0.70186683  1
  F  F32  1  0.39586089  0.68964087  0.29813317  1
  F  F33  1  0.31035913  0.70622002  0.29813317  1
  F  F34  1  0.29377998  0.60413911  0.29813317  1
  F  F35  1  0.68964087  0.39586089  0.29813317  1
  F  F36  1  0.70622002  0.31035913  0.29813317  1
  F  F37  1  0.60413911  0.29377998  0.29813317  1
  F  F38  1  0.68964087  0.39586089  0.70186683  1
  F  F39  1  0.70622002  0.31035913  0.70186683  1
  F  F40  1  0.60413911  0.29377998  0.70186683  1
  F  F41  1  0.00000000  0.00000000  0.00000000  1
  Li  Li42  1  0.61804698  0.79672848  0.79728740  1
  Li  Li43  1  -0.79672848  -0.17868149  0.79728740  1
  Li  Li44  1  0.17868149  -0.61804698  0.79728740  1
  Li  Li45  1  0.61804698  0.79672848  -0.79728740  1
  Li  Li46  1  -0.79672848  -0.17868149  -0.79728740  1
  Li  Li47  1  0.17868149  -0.61804698  -0.79728740  1
  Li  Li48  1  0.79672848  0.61804698  -0.79728740  1
  Li  Li49  1  -0.17868149  -0.79672848  -0.79728740  1
  Li  Li50  1  -0.61804698  0.17868149  -0.79728740  1
  Li  Li51  1  0.79672848  0.61804698  0.79728740  1
  Li  Li52  1  -0.17868149  -0.79672848  0.79728740  1
  Li  Li53  1  -0.61804698  0.17868149  0.79728740  1
  Li  Li54  1  0.51382289  0.25297270  0.42291956  1
  Li  Li55  1  0.74702730  0.26085019  0.42291956  1
  Li  Li56  1  0.73914981  0.48617711  0.42291956  1
  Li  Li57  1  0.51382289  0.25297270  0.57708044  1
  Li  Li58  1  0.74702730  0.26085019  0.57708044  1
  Li  Li59  1  0.73914981  0.48617711  0.57708044  1
  Li  Li60  1  0.25297270  0.51382289  0.57708044  1
  Li  Li61  1  0.26085019  0.74702730  0.57708044  1
  Li  Li62  1  0.48617711  0.73914981  0.57708044  1
  Li  Li63  1  0.25297270  0.51382289  0.42291956  1
  Li  Li64  1  0.26085019  0.74702730  0.42291956  1
  Li  Li65  1  0.48617711  0.73914981  0.42291956  1
  Li  Li66  1  0.20966990  0.00000000  0.59071613  1
  Li  Li67  1  0.00000000  0.20966990  0.59071613  1
  Li  Li68  1  0.79033010  0.79033010  0.59071613  1
  Li  Li69  1  0.20966990  0.00000000  0.40928387  1
  Li  Li70  1  0.00000000  0.20966990  0.40928387  1
  Li  Li71  1  0.79033010  0.79033010  0.40928387  1
  Li  Li72  1  0.00000000  0.00000000  0.71015689  1
  Li  Li73  1  0.00000000  0.00000000  0.28984311  1
  Li  Li74  1  0.34093551  0.00000000  0.93933183  1
  Li  Li75  1  0.00000000  0.34093551  0.93933183  1
  Li  Li76  1  0.65906449  0.65906449  0.93933183  1
  Li  Li77  1  0.34093551  0.00000000  0.06066817  1
  Li  Li78  1  0.00000000  0.34093551  0.06066817  1
  Li  Li79  1  0.65906449  0.65906449  0.06066817  1
  Li  Li80  1  0.33333333  0.66666667  0.23509932  1
  Li  Li81  1  0.33333333  0.66666667  0.76490068  1
  Li  Li82  1  0.66666667  0.33333333  0.76490068  1
  Li  Li83  1  0.66666667  0.33333333  0.23509932  1
