# generated using pymatgen
data_LiF
_symmetry_space_group_name_H-M   'P 1'
_cell_length_a   10.07399085
_cell_length_b   10.91541093
_cell_length_c   11.94505511
_cell_angle_alpha   90.00000000
_cell_angle_beta   90.00000000
_cell_angle_gamma   90.00000000
_symmetry_Int_Tables_number   1
_chemical_formula_structural   LiF
_chemical_formula_sum   'Li66 F66'
_cell_volume   1313.49916107
_cell_formula_units_Z   66
loop_
 _symmetry_equiv_pos_site_id
 _symmetry_equiv_pos_as_xyz
  1  'x, y, z'
loop_
 _atom_site_type_symbol
 _atom_site_label
 _atom_site_symmetry_multiplicity
 _atom_site_fract_x
 _atom_site_fract_y
 _atom_site_fract_z
 _atom_site_occupancy
  F  F0  1  0.62654489  0.23422173  0.24324522  1
  F  F1  1  0.37345511  0.76577827  0.24324522  1
  F  F2  1  0.87345511  0.73422173  0.75675478  1
  F  F3  1  0.12654489  0.26577827  0.75675478  1
  F  F4  1  0.37345511  0.76577827  0.75675478  1
  F  F5  1  0.62654489  0.23422173  0.75675478  1
  F  F6  1  0.12654489  0.26577827  0.24324522  1
  F  F7  1  0.87345511  0.73422173  0.24324522  1
  F  F8  1  0.00000000  0.00000000  0.90169038  1
  F  F9  1  0.50000000  0.50000000  0.09830962  1
  F  F10  1  0.00000000  0.00000000  0.09830962  1
  F  F11  1  0.50000000  0.50000000  0.90169038  1
  F  F12  1  0.91685556  0.02522631  0.40019976  1
  F  F13  1  0.08314444  0.97477369  0.40019976  1
  F  F14  1  0.58314444  0.52522631  0.59980024  1
  F  F15  1  0.41685556  0.47477369  0.59980024  1
  F  F16  1  0.08314444  0.97477369  0.59980024  1
  F  F17  1  0.91685556  0.02522631  0.59980024  1
  F  F18  1  0.41685556  0.47477369  0.40019976  1
  F  F19  1  0.58314444  0.52522631  0.40019976  1
  F  F20  1  0.00000000  0.50000000  0.00000000  1
  F  F21  1  0.50000000  0.00000000  0.00000000  1
  F  F22  1  0.44154861  0.19853812  0.00000000  1
  F  F23  1  0.55845139  0.80146188  0.00000000  1
  F  F24  1  0.05845139  0.69853812  0.00000000  1
  F  F25  1  0.94154861  0.30146188  0.00000000  1
  F  F26  1  0.89015323  0.99004841  0.73129161  1
  F  F27  1  0.10984677  0.00995159  0.73129161  1
  F  F28  1  0.60984677  0.49004841  0.26870839  1
  F  F29  1  0.39015323  0.50995159  0.26870839  1
  F  F30  1  0.10984677  0.00995159  0.26870839  1
  F  F31  1  0.89015323  0.99004841  0.26870839  1
  F  F32  1  0.39015323  0.50995159  0.73129161  1
  F  F33  1  0.60984677  0.49004841  0.73129161  1
  F  F34  1  0.70176150  0.77253550  0.00000000  1
  F  F35  1  0.29823850  0.22746450  -0.00000000  1
  F  F36  1  0.79823850  0.27253550  0.00000000  1
  F  F37  1  0.20176150  0.72746450  0.00000000  1
  F  F38  1  0.02120549  0.15401077  0.76925843  1
  F  F39  1  0.97879451  0.84598923  0.76925843  1
  F  F40  1  0.47879451  0.65401077  0.23074157  1
  F  F41  1  0.52120549  0.34598923  0.23074157  1
  F  F42  1  0.97879451  0.84598923  0.23074157  1
  F  F43  1  0.02120549  0.15401077  0.23074157  1
  F  F44  1  0.52120549  0.34598923  0.76925843  1
  F  F45  1  0.47879451  0.65401077  0.76925843  1
  F  F46  1  0.83983977  0.58250822  0.65422000  1
  F  F47  1  0.16016023  0.41749178  0.65422000  1
  F  F48  1  0.66016023  0.08250822  0.34578000  1
  F  F49  1  0.33983977  0.91749178  0.34578000  1
  F  F50  1  0.16016023  0.41749178  0.34578000  1
  F  F51  1  0.83983977  0.58250822  0.34578000  1
  F  F52  1  0.33983977  0.91749178  0.65422000  1
  F  F53  1  0.66016023  0.08250822  0.65422000  1
  F  F54  1  0.49811166  0.45976288  0.18885137  1
  F  F55  1  0.50188834  0.54023712  0.18885137  1
  F  F56  1  0.00188834  0.95976288  0.81114863  1
  F  F57  1  0.99811166  0.04023712  0.81114863  1
  F  F58  1  0.50188834  0.54023712  0.81114863  1
  F  F59  1  0.49811166  0.45976288  0.81114863  1
  F  F60  1  0.99811166  0.04023712  0.18885137  1
  F  F61  1  0.00188834  0.95976288  0.18885137  1
  F  F62  1  0.00000000  0.50000000  0.62381746  1
  F  F63  1  0.50000000  0.00000000  0.37618254  1
  F  F64  1  0.00000000  0.50000000  0.37618254  1
  F  F65  1  0.50000000  0.00000000  0.62381746  1
  Li  Li66  1  0.16466563  0.31113852  0.63903568  1
  Li  Li67  1  -0.16466563  -0.31113852  0.63903568  1
  Li  Li68  1  0.33533437  0.81113852  -0.63903568  1
  Li  Li69  1  0.66466563  0.18886148  -0.63903568  1
  Li  Li70  1  -0.16466563  -0.31113852  -0.63903568  1
  Li  Li71  1  0.16466563  0.31113852  -0.63903568  1
  Li  Li72  1  0.66466563  0.18886148  0.63903568  1
  Li  Li73  1  0.33533437  0.81113852  0.63903568  1
  Li  Li74  1  0.00000000  0.00000000  0.30755145  1
  Li  Li75  1  0.50000000  0.50000000  0.69244855  1
  Li  Li76  1  0.00000000  0.00000000  0.69244855  1
  Li  Li77  1  0.50000000  0.50000000  0.30755145  1
  Li  Li78  1  0.26779853  0.25811947  0.59862476  1
  Li  Li79  1  0.73220147  0.74188053  0.59862476  1
  Li  Li80  1  0.23220147  0.75811947  0.40137524  1
  Li  Li81  1  0.76779853  0.24188053  0.40137524  1
  Li  Li82  1  0.73220147  0.74188053  0.40137524  1
  Li  Li83  1  0.26779853  0.25811947  0.40137524  1
  Li  Li84  1  0.76779853  0.24188053  0.59862476  1
  Li  Li85  1  0.23220147  0.75811947  0.59862476  1
  Li  Li86  1  0.00000000  0.50000000  0.50000000  1
  Li  Li87  1  0.50000000  0.00000000  0.50000000  1
  Li  Li88  1  0.18281130  0.72468021  0.81188923  1
  Li  Li89  1  0.81718870  0.27531979  0.81188923  1
  Li  Li90  1  0.31718870  0.22468021  0.18811077  1
  Li  Li91  1  0.68281130  0.77531979  0.18811077  1
  Li  Li92  1  0.81718870  0.27531979  0.18811077  1
  Li  Li93  1  0.18281130  0.72468021  0.18811077  1
  Li  Li94  1  0.68281130  0.77531979  0.81188923  1
  Li  Li95  1  0.31718870  0.22468021  0.81188923  1
  Li  Li96  1  0.60034132  0.16476428  0.50000000  1
  Li  Li97  1  0.39965868  0.83523572  0.50000000  1
  Li  Li98  1  0.89965868  0.66476428  0.50000000  1
  Li  Li99  1  0.10034132  0.33523572  0.50000000  1
  Li  Li100  1  0.96915620  0.22647314  0.37695844  1
  Li  Li101  1  0.03084380  0.77352686  0.37695844  1
  Li  Li102  1  0.53084380  0.72647314  0.62304156  1
  Li  Li103  1  0.46915620  0.27352686  0.62304156  1
  Li  Li104  1  0.03084380  0.77352686  0.62304156  1
  Li  Li105  1  0.96915620  0.22647314  0.62304156  1
  Li  Li106  1  0.46915620  0.27352686  0.37695844  1
  Li  Li107  1  0.53084380  0.72647314  0.37695844  1
  Li  Li108  1  0.00000000  0.50000000  0.11579706  1
  Li  Li109  1  0.50000000  0.00000000  0.88420294  1
  Li  Li110  1  0.00000000  0.50000000  0.88420294  1
  Li  Li111  1  0.50000000  0.00000000  0.11579706  1
  Li  Li112  1  0.79874526  0.97931625  0.00000000  1
  Li  Li113  1  0.20125474  0.02068375  0.00000000  1
  Li  Li114  1  0.70125474  0.47931625  0.00000000  1
  Li  Li115  1  0.29874526  0.52068375  -0.00000000  1
  Li  Li116  1  0.99600802  0.23158773  0.50000000  1
  Li  Li117  1  0.00399198  0.76841227  0.50000000  1
  Li  Li118  1  0.50399198  0.73158773  0.50000000  1
  Li  Li119  1  0.49600802  0.26841227  0.50000000  1
  Li  Li120  1  0.80412465  0.48160484  0.83491657  1
  Li  Li121  1  0.19587535  0.51839516  0.83491657  1
  Li  Li122  1  0.69587535  0.98160484  0.16508343  1
  Li  Li123  1  0.30412465  0.01839516  0.16508343  1
  Li  Li124  1  0.19587535  0.51839516  0.16508343  1
  Li  Li125  1  0.80412465  0.48160484  0.16508343  1
  Li  Li126  1  0.30412465  0.01839516  0.83491657  1
  Li  Li127  1  0.69587535  0.98160484  0.83491657  1
  Li  Li128  1  0.00000000  0.00000000  0.50000000  1
  Li  Li129  1  0.50000000  0.50000000  0.50000000  1
  Li  Li130  1  0.00000000  0.00000000  0.00000000  1
  Li  Li131  1  0.50000000  0.50000000  0.00000000  1
