# generated using pymatgen
data_Li3(YP)2
_symmetry_space_group_name_H-M   'P 1'
_cell_length_a   5.74238148
_cell_length_b   5.86732657
_cell_length_c   7.12056288
_cell_angle_alpha   92.94791650
_cell_angle_beta   96.65441907
_cell_angle_gamma   102.12371782
_symmetry_Int_Tables_number   1
_chemical_formula_structural   Li3(YP)2
_chemical_formula_sum   'Li3 Y2 P2'
_cell_volume   232.26786363
_cell_formula_units_Z   1
loop_
 _symmetry_equiv_pos_site_id
 _symmetry_equiv_pos_as_xyz
  1  'x, y, z'
loop_
 _atom_site_type_symbol
 _atom_site_label
 _atom_site_symmetry_multiplicity
 _atom_site_fract_x
 _atom_site_fract_y
 _atom_site_fract_z
 _atom_site_occupancy
  P  P0  1  0.00000000  0.00000000  0.00000000  1
  P  P1  1  0.50000000  0.50000000  0.50000000  1
  Li  Li2  1  0.25000000  0.25000000  0.25000000  1
  Li  Li3  1  0.75000000  0.25000000  0.00000000  1
  Li  Li4  1  0.25000000  0.75000000  0.50000000  1
  Y  Y5  1  0.10332566  0.67086048  0.50242136  1
  Y  Y6  1  0.37417400  0.46658599  0.03688884  1
