# generated using pymatgen
data_LiCaF3
_symmetry_space_group_name_H-M   'P 1'
_cell_length_a   12.71905620
_cell_length_b   12.71905620
_cell_length_c   13.15744451
_cell_angle_alpha   90.00000000
_cell_angle_beta   90.00000000
_cell_angle_gamma   120.00000000
_symmetry_Int_Tables_number   1
_chemical_formula_structural   LiCaF3
_chemical_formula_sum   'Li18 Ca18 F54'
_cell_volume   1843.36760620
_cell_formula_units_Z   18
loop_
 _symmetry_equiv_pos_site_id
 _symmetry_equiv_pos_as_xyz
  1  'x, y, z'
loop_
 _atom_site_type_symbol
 _atom_site_label
 _atom_site_symmetry_multiplicity
 _atom_site_fract_x
 _atom_site_fract_y
 _atom_site_fract_z
 _atom_site_occupancy
  Ca  Ca0  1  0.00000000  0.00000000  0.00000000  1
  Ca  Ca1  1  0.00000000  0.00000000  0.50000000  1
  Ca  Ca2  1  0.66666667  0.33333333  0.33333333  1
  Ca  Ca3  1  0.66666667  0.33333333  0.83333333  1
  Ca  Ca4  1  0.33333333  0.66666667  0.66666667  1
  Ca  Ca5  1  0.33333333  0.66666667  0.16666667  1
  Ca  Ca6  1  0.00000000  0.00000000  0.15580451  1
  Ca  Ca7  1  0.00000000  0.00000000  0.34419549  1
  Ca  Ca8  1  0.00000000  0.00000000  0.84419549  1
  Ca  Ca9  1  0.00000000  0.00000000  0.65580451  1
  Ca  Ca10  1  0.66666667  0.33333333  0.48913784  1
  Ca  Ca11  1  0.66666667  0.33333333  0.67752883  1
  Ca  Ca12  1  0.66666667  0.33333333  0.17752883  1
  Ca  Ca13  1  0.66666667  0.33333333  0.98913784  1
  Ca  Ca14  1  0.33333333  0.66666667  0.82247117  1
  Ca  Ca15  1  0.33333333  0.66666667  0.01086216  1
  Ca  Ca16  1  0.33333333  0.66666667  0.51086216  1
  Ca  Ca17  1  0.33333333  0.66666667  0.32247117  1
  F  F18  1  0.50000000  -0.00000000  0.00000000  1
  F  F19  1  0.00000000  0.50000000  0.00000000  1
  F  F20  1  0.50000000  0.50000000  0.00000000  1
  F  F21  1  0.00000000  0.50000000  0.50000000  1
  F  F22  1  0.50000000  -0.00000000  0.50000000  1
  F  F23  1  0.50000000  0.50000000  0.50000000  1
  F  F24  1  0.16666667  0.33333333  0.33333333  1
  F  F25  1  0.66666667  0.83333333  0.33333333  1
  F  F26  1  0.16666667  0.83333333  0.33333333  1
  F  F27  1  0.66666667  0.83333333  0.83333333  1
  F  F28  1  0.16666667  0.33333333  0.83333333  1
  F  F29  1  0.16666667  0.83333333  0.83333333  1
  F  F30  1  0.83333333  0.66666667  0.66666667  1
  F  F31  1  0.33333333  0.16666667  0.66666667  1
  F  F32  1  0.83333333  0.16666667  0.66666667  1
  F  F33  1  0.33333333  0.16666667  0.16666667  1
  F  F34  1  0.83333333  0.66666667  0.16666667  1
  F  F35  1  0.83333333  0.16666667  0.16666667  1
  F  F36  1  0.22809144  0.09336620  0.46495454  1
  F  F37  1  -0.09336620  0.13472524  0.46495454  1
  F  F38  1  -0.13472524  -0.22809144  0.46495454  1
  F  F39  1  0.09336620  0.22809144  0.03504546  1
  F  F40  1  0.13472524  -0.09336620  0.03504546  1
  F  F41  1  -0.22809144  -0.13472524  0.03504546  1
  F  F42  1  -0.22809144  -0.09336620  -0.46495454  1
  F  F43  1  0.09336620  -0.13472524  -0.46495454  1
  F  F44  1  0.13472524  0.22809144  -0.46495454  1
  F  F45  1  -0.09336620  -0.22809144  0.96495454  1
  F  F46  1  -0.13472524  0.09336620  0.96495454  1
  F  F47  1  0.22809144  0.13472524  0.96495454  1
  F  F48  1  0.89475811  0.42669953  0.79828788  1
  F  F49  1  0.57330047  0.46805857  0.79828788  1
  F  F50  1  0.53194143  0.10524189  0.79828788  1
  F  F51  1  0.76003287  0.56142477  0.36837879  1
  F  F52  1  0.80139191  0.23996713  0.36837879  1
  F  F53  1  0.43857523  0.19860809  0.36837879  1
  F  F54  1  0.43857523  0.23996713  -0.13162121  1
  F  F55  1  0.76003287  0.19860809  -0.13162121  1
  F  F56  1  0.80139191  0.56142477  -0.13162121  1
  F  F57  1  0.57330047  0.10524189  1.29828788  1
  F  F58  1  0.53194143  0.42669953  1.29828788  1
  F  F59  1  0.89475811  0.46805857  1.29828788  1
  F  F60  1  0.56142477  0.76003287  1.13162121  1
  F  F61  1  0.23996713  0.80139191  1.13162121  1
  F  F62  1  0.19860809  0.43857523  1.13162121  1
  F  F63  1  0.42669953  0.89475811  0.70171212  1
  F  F64  1  0.46805857  0.57330047  0.70171212  1
  F  F65  1  0.10524189  0.53194143  0.70171212  1
  F  F66  1  0.10524189  0.57330047  0.20171212  1
  F  F67  1  0.42669953  0.53194143  0.20171212  1
  F  F68  1  0.46805857  0.89475811  0.20171212  1
  F  F69  1  0.23996713  0.43857523  1.63162121  1
  F  F70  1  0.19860809  0.76003287  1.63162121  1
  F  F71  1  0.56142477  0.80139191  1.63162121  1
  Li  Li72  1  0.54334462  -0.00000000  0.25000000  1
  Li  Li73  1  0.00000000  0.54334462  0.25000000  1
  Li  Li74  1  0.45665538  0.45665538  0.25000000  1
  Li  Li75  1  0.45665538  0.00000000  0.75000000  1
  Li  Li76  1  0.00000000  0.45665538  0.75000000  1
  Li  Li77  1  0.54334462  0.54334462  0.75000000  1
  Li  Li78  1  0.21001129  0.33333333  0.58333333  1
  Li  Li79  1  0.66666667  0.87667796  0.58333333  1
  Li  Li80  1  0.12332204  0.78998871  0.58333333  1
  Li  Li81  1  0.12332204  0.33333333  0.08333333  1
  Li  Li82  1  0.66666667  0.78998871  0.08333333  1
  Li  Li83  1  0.21001129  0.87667796  0.08333333  1
  Li  Li84  1  0.87667796  0.66666667  0.91666667  1
  Li  Li85  1  0.33333333  0.21001129  0.91666667  1
  Li  Li86  1  0.78998871  0.12332204  0.91666667  1
  Li  Li87  1  0.78998871  0.66666667  0.41666667  1
  Li  Li88  1  0.33333333  0.12332204  0.41666667  1
  Li  Li89  1  0.87667796  0.21001129  0.41666667  1
