# generated using pymatgen
data_LiYSbAs2P
_symmetry_space_group_name_H-M   'P 1'
_cell_length_a   4.66808727
_cell_length_b   4.78045574
_cell_length_c   6.91181894
_cell_angle_alpha   95.29660500
_cell_angle_beta   101.53490454
_cell_angle_gamma   111.27435718
_symmetry_Int_Tables_number   1
_chemical_formula_structural   LiYSbAs2P
_chemical_formula_sum   'Li2 Y2 Sb2 As4 P2'
_cell_volume   138.51251593
_cell_formula_units_Z   2
loop_
 _symmetry_equiv_pos_site_id
 _symmetry_equiv_pos_as_xyz
  1  'x, y, z'
loop_
 _atom_site_type_symbol
 _atom_site_label
 _atom_site_symmetry_multiplicity
 _atom_site_fract_x
 _atom_site_fract_y
 _atom_site_fract_z
 _atom_site_occupancy
  Y  Y0  1  0.00000000  0.00000000  0.00000000  1
  Y  Y1  1  0.50000000  0.50000000  0.50000000  1
  P  P2  1  0.25000000  0.25000000  0.25000000  1
  P  P3  1  0.75000000  0.25000000  0.00000000  1
  As  As4  1  0.25000000  0.75000000  0.50000000  1
  As  As5  1  0.10738513  0.51916297  0.49311051  1
  As  As6  1  0.98174229  0.53426479  0.90805087  1
  As  As7  1  0.91781723  0.19399685  0.77372606  1
  Li  Li8  1  0.97229200  0.64818110  0.25881742  1
  Li  Li9  1  0.70951308  0.69220187  0.22805290  1
  Sb  Sb10  1  0.84985839  0.91476163  0.01880497  1
  Sb  Sb11  1  0.67370236  0.08286640  0.86883972  1
