# generated using pymatgen
data_LiF
_symmetry_space_group_name_H-M   'P 1'
_cell_length_a   6.47276187
_cell_length_b   6.47276187
_cell_length_c   10.32630107
_cell_angle_alpha   90.00000000
_cell_angle_beta   90.00000000
_cell_angle_gamma   120.00000000
_symmetry_Int_Tables_number   1
_chemical_formula_structural   LiF
_chemical_formula_sum   'Li20 F20'
_cell_volume   374.67496461
_cell_formula_units_Z   20
loop_
 _symmetry_equiv_pos_site_id
 _symmetry_equiv_pos_as_xyz
  1  'x, y, z'
loop_
 _atom_site_type_symbol
 _atom_site_label
 _atom_site_symmetry_multiplicity
 _atom_site_fract_x
 _atom_site_fract_y
 _atom_site_fract_z
 _atom_site_occupancy
  F  F0  1  0.66666667  0.33333333  0.25000000  1
  F  F1  1  0.33333333  0.66666667  0.75000000  1
  F  F2  1  0.29320113  0.50349791  0.58344456  1
  F  F3  1  -0.50349791  -0.21029678  0.58344456  1
  F  F4  1  0.21029678  -0.29320113  0.58344456  1
  F  F5  1  -0.29320113  -0.50349791  1.08344456  1
  F  F6  1  0.50349791  0.21029678  1.08344456  1
  F  F7  1  -0.21029678  0.29320113  1.08344456  1
  F  F8  1  -0.29320113  -0.50349791  -0.58344456  1
  F  F9  1  0.50349791  0.21029678  -0.58344456  1
  F  F10  1  -0.21029678  0.29320113  -0.58344456  1
  F  F11  1  0.29320113  0.50349791  -0.08344456  1
  F  F12  1  -0.50349791  -0.21029678  -0.08344456  1
  F  F13  1  0.21029678  -0.29320113  -0.08344456  1
  F  F14  1  0.50000000  0.00000000  0.00000000  1
  F  F15  1  0.00000000  0.50000000  0.00000000  1
  F  F16  1  0.50000000  0.50000000  0.00000000  1
  F  F17  1  0.50000000  0.00000000  0.50000000  1
  F  F18  1  0.00000000  0.50000000  0.50000000  1
  F  F19  1  0.50000000  0.50000000  0.50000000  1
  Li  Li20  1  0.33333333  0.66666667  0.11695336  1
  Li  Li21  1  0.66666667  0.33333333  0.61695336  1
  Li  Li22  1  0.66666667  0.33333333  0.88304664  1
  Li  Li23  1  0.33333333  0.66666667  0.38304664  1
  Li  Li24  1  0.33861429  0.93801987  0.95097662  1
  Li  Li25  1  0.06198013  0.40059442  0.95097662  1
  Li  Li26  1  0.59940558  0.66138571  0.95097662  1
  Li  Li27  1  0.66138571  0.06198013  0.45097662  1
  Li  Li28  1  0.93801987  0.59940558  0.45097662  1
  Li  Li29  1  0.40059442  0.33861429  0.45097662  1
  Li  Li30  1  0.66138571  0.06198013  0.04902338  1
  Li  Li31  1  0.93801987  0.59940558  0.04902338  1
  Li  Li32  1  0.40059442  0.33861429  0.04902338  1
  Li  Li33  1  0.33861429  0.93801987  0.54902338  1
  Li  Li34  1  0.06198013  0.40059442  0.54902338  1
  Li  Li35  1  0.59940558  0.66138571  0.54902338  1
  Li  Li36  1  0.00000000  0.00000000  0.25000000  1
  Li  Li37  1  0.00000000  0.00000000  0.75000000  1
  Li  Li38  1  0.33333333  0.66666667  0.25000000  1
  Li  Li39  1  0.66666667  0.33333333  0.75000000  1
