# generated using pymatgen
data_Li2Si4Te3F12
_symmetry_space_group_name_H-M   'P 1'
_cell_length_a   9.47591060
_cell_length_b   12.52904350
_cell_length_c   9.13255188
_cell_angle_alpha   90.00000000
_cell_angle_beta   90.00000000
_cell_angle_gamma   90.00000000
_symmetry_Int_Tables_number   1
_chemical_formula_structural   Li2Si4Te3F12
_chemical_formula_sum   'Li8 Si16 Te12 F48'
_cell_volume   1084.25396675
_cell_formula_units_Z   4
loop_
 _symmetry_equiv_pos_site_id
 _symmetry_equiv_pos_as_xyz
  1  'x, y, z'
loop_
 _atom_site_type_symbol
 _atom_site_label
 _atom_site_symmetry_multiplicity
 _atom_site_fract_x
 _atom_site_fract_y
 _atom_site_fract_z
 _atom_site_occupancy
  F  F0  1  0.78693149  0.88074420  0.69748471  1
  F  F1  1  -0.78693149  -0.88074420  0.69748471  1
  F  F2  1  -0.28693149  1.38074420  -0.19748471  1
  F  F3  1  1.28693149  -0.38074420  -0.19748471  1
  F  F4  1  -0.78693149  -0.88074420  -0.69748471  1
  F  F5  1  0.78693149  0.88074420  -0.69748471  1
  F  F6  1  1.28693149  -0.38074420  1.19748471  1
  F  F7  1  -0.28693149  1.38074420  1.19748471  1
  F  F8  1  0.00000000  0.50000000  0.50000000  1
  F  F9  1  0.50000000  0.00000000  0.00000000  1
  F  F10  1  0.00000000  0.50000000  0.00000000  1
  F  F11  1  0.50000000  0.00000000  0.50000000  1
  F  F12  1  0.90005525  0.11932596  0.19860287  1
  F  F13  1  0.09994475  0.88067404  0.19860287  1
  F  F14  1  0.59994475  0.61932596  0.30139713  1
  F  F15  1  0.40005525  0.38067404  0.30139713  1
  F  F16  1  0.09994475  0.88067404  0.80139713  1
  F  F17  1  0.90005525  0.11932596  0.80139713  1
  F  F18  1  0.40005525  0.38067404  0.69860287  1
  F  F19  1  0.59994475  0.61932596  0.69860287  1
  F  F20  1  0.17896991  0.87770390  0.29185773  1
  F  F21  1  0.82103009  0.12229610  0.29185773  1
  F  F22  1  0.32103009  0.37770390  0.20814227  1
  F  F23  1  0.67896991  0.62229610  0.20814227  1
  F  F24  1  0.82103009  0.12229610  0.70814227  1
  F  F25  1  0.17896991  0.87770390  0.70814227  1
  F  F26  1  0.67896991  0.62229610  0.79185773  1
  F  F27  1  0.32103009  0.37770390  0.79185773  1
  F  F28  1  0.22134659  0.78015980  0.12093641  1
  F  F29  1  0.77865341  0.21984020  0.12093641  1
  F  F30  1  0.27865341  0.28015980  0.37906359  1
  F  F31  1  0.72134659  0.71984020  0.37906359  1
  F  F32  1  0.77865341  0.21984020  0.87906359  1
  F  F33  1  0.22134659  0.78015980  0.87906359  1
  F  F34  1  0.72134659  0.71984020  0.62093641  1
  F  F35  1  0.27865341  0.28015980  0.62093641  1
  F  F36  1  0.00000000  0.00000000  0.00000000  1
  F  F37  1  0.50000000  0.50000000  0.50000000  1
  F  F38  1  0.71812397  0.43379093  0.30118229  1
  F  F39  1  0.28187603  0.56620907  0.30118229  1
  F  F40  1  0.78187603  0.93379093  0.19881771  1
  F  F41  1  0.21812397  0.06620907  0.19881771  1
  F  F42  1  0.28187603  0.56620907  0.69881771  1
  F  F43  1  0.71812397  0.43379093  0.69881771  1
  F  F44  1  0.21812397  0.06620907  0.80118229  1
  F  F45  1  0.78187603  0.93379093  0.80118229  1
  F  F46  1  0.00000000  0.00000000  0.50000000  1
  F  F47  1  0.50000000  0.50000000  0.00000000  1
  Li  Li48  1  0.47613210  0.31457325  0.79985418  1
  Li  Li49  1  0.52386790  0.68542675  0.79985418  1
  Li  Li50  1  0.02386790  0.81457325  0.70014582  1
  Li  Li51  1  0.97613210  0.18542675  0.70014582  1
  Li  Li52  1  0.52386790  0.68542675  0.20014582  1
  Li  Li53  1  0.47613210  0.31457325  0.20014582  1
  Li  Li54  1  0.97613210  0.18542675  0.29985418  1
  Li  Li55  1  0.02386790  0.81457325  0.29985418  1
  Si  Si56  1  0.68182516  0.67501033  -0.00000000  1
  Si  Si57  1  0.31817484  0.32498967  0.00000000  1
  Si  Si58  1  0.81817484  0.17501033  0.50000000  1
  Si  Si59  1  0.18182516  0.82498967  0.50000000  1
  Si  Si60  1  0.00000000  0.50000000  0.79810816  1
  Si  Si61  1  0.50000000  0.00000000  0.70189184  1
  Si  Si62  1  0.00000000  0.50000000  0.20189184  1
  Si  Si63  1  0.50000000  0.00000000  0.29810816  1
  Si  Si64  1  0.00000000  0.00000000  0.80514951  1
  Si  Si65  1  0.50000000  0.50000000  0.69485049  1
  Si  Si66  1  0.00000000  0.00000000  0.19485049  1
  Si  Si67  1  0.50000000  0.50000000  0.30514951  1
  Si  Si68  1  0.68766935  0.83504883  0.00000000  1
  Si  Si69  1  0.31233065  0.16495117  0.00000000  1
  Si  Si70  1  0.81233065  0.33504883  0.50000000  1
  Si  Si71  1  0.18766935  0.66495117  0.50000000  1
  Te  Te72  1  0.37545323  0.44653943  0.00000000  1
  Te  Te73  1  0.62454677  0.55346057  0.00000000  1
  Te  Te74  1  0.12454677  0.94653943  0.50000000  1
  Te  Te75  1  0.87545323  0.05346057  0.50000000  1
  Te  Te76  1  0.32742185  0.19307170  0.80029169  1
  Te  Te77  1  0.67257815  0.80692830  0.80029169  1
  Te  Te78  1  0.17257815  0.69307170  0.69970831  1
  Te  Te79  1  0.82742185  0.30692830  0.69970831  1
  Te  Te80  1  0.67257815  0.80692830  0.19970831  1
  Te  Te81  1  0.32742185  0.19307170  0.19970831  1
  Te  Te82  1  0.82742185  0.30692830  0.30029169  1
  Te  Te83  1  0.17257815  0.69307170  0.30029169  1
