# generated using pymatgen
data_LiF
_symmetry_space_group_name_H-M   'P 1'
_cell_length_a   8.38654557
_cell_length_b   12.56573433
_cell_length_c   6.89825460
_cell_angle_alpha   90.00000000
_cell_angle_beta   90.00000000
_cell_angle_gamma   90.00000000
_symmetry_Int_Tables_number   1
_chemical_formula_structural   LiF
_chemical_formula_sum   'Li24 F24'
_cell_volume   726.95947854
_cell_formula_units_Z   24
loop_
 _symmetry_equiv_pos_site_id
 _symmetry_equiv_pos_as_xyz
  1  'x, y, z'
loop_
 _atom_site_type_symbol
 _atom_site_label
 _atom_site_symmetry_multiplicity
 _atom_site_fract_x
 _atom_site_fract_y
 _atom_site_fract_z
 _atom_site_occupancy
  F  F0  1  0.97873530  0.11458893  0.92661071  1
  F  F1  1  0.52126470  0.88541107  0.42661071  1
  F  F2  1  0.02126470  0.61458893  0.07338929  1
  F  F3  1  0.47873530  0.38541107  0.57338929  1
  F  F4  1  0.02126470  0.88541107  0.07338929  1
  F  F5  1  0.47873530  0.11458893  0.57338929  1
  F  F6  1  0.97873530  0.38541107  0.92661071  1
  F  F7  1  0.52126470  0.61458893  0.42661071  1
  F  F8  1  0.56433884  0.25000000  0.28364742  1
  F  F9  1  0.93566116  0.75000000  0.78364742  1
  F  F10  1  0.43566116  0.75000000  0.71635258  1
  F  F11  1  0.06433884  0.25000000  0.21635258  1
  F  F12  1  0.00000000  0.00000000  0.00000000  1
  F  F13  1  0.50000000  0.00000000  0.50000000  1
  F  F14  1  0.00000000  0.50000000  0.00000000  1
  F  F15  1  0.50000000  0.50000000  0.50000000  1
  F  F16  1  0.77127351  0.60286622  0.91193730  1
  F  F17  1  0.72872649  0.39713378  0.41193730  1
  F  F18  1  0.22872649  0.10286622  0.08806270  1
  F  F19  1  0.27127351  0.89713378  0.58806270  1
  F  F20  1  0.22872649  0.39713378  0.08806270  1
  F  F21  1  0.27127351  0.60286622  0.58806270  1
  F  F22  1  0.77127351  0.89713378  0.91193730  1
  F  F23  1  0.72872649  0.10286622  0.41193730  1
  Li  Li24  1  0.00000000  0.00000000  0.50000000  1
  Li  Li25  1  0.50000000  0.00000000  0.00000000  1
  Li  Li26  1  0.00000000  0.50000000  0.50000000  1
  Li  Li27  1  0.50000000  0.50000000  0.00000000  1
  Li  Li28  1  0.00481687  0.36947173  0.39067686  1
  Li  Li29  1  0.49518313  -0.36947173  0.89067686  1
  Li  Li30  1  -0.00481687  0.86947173  -0.39067686  1
  Li  Li31  1  0.50481687  0.13052827  0.10932314  1
  Li  Li32  1  -0.00481687  -0.36947173  -0.39067686  1
  Li  Li33  1  0.50481687  0.36947173  0.10932314  1
  Li  Li34  1  0.00481687  0.13052827  0.39067686  1
  Li  Li35  1  0.49518313  0.86947173  0.89067686  1
  Li  Li36  1  0.62898482  0.30621395  0.86251998  1
  Li  Li37  1  0.87101518  0.69378605  0.36251998  1
  Li  Li38  1  0.37101518  0.80621395  0.13748002  1
  Li  Li39  1  0.12898482  0.19378605  0.63748002  1
  Li  Li40  1  0.37101518  0.69378605  0.13748002  1
  Li  Li41  1  0.12898482  0.30621395  0.63748002  1
  Li  Li42  1  0.62898482  0.19378605  0.86251998  1
  Li  Li43  1  0.87101518  0.80621395  0.36251998  1
  Li  Li44  1  0.47427250  0.25000000  0.17509708  1
  Li  Li45  1  0.02572750  0.75000000  0.67509708  1
  Li  Li46  1  0.52572750  0.75000000  0.82490292  1
  Li  Li47  1  0.97427250  0.25000000  0.32490292  1
