# generated using pymatgen
data_LiF
_symmetry_space_group_name_H-M   'P 1'
_cell_length_a   6.73038197
_cell_length_b   8.05677520
_cell_length_c   13.73449444
_cell_angle_alpha   90.00000000
_cell_angle_beta   90.00000000
_cell_angle_gamma   90.00000000
_symmetry_Int_Tables_number   1
_chemical_formula_structural   LiF
_chemical_formula_sum   'Li28 F28'
_cell_volume   744.75535793
_cell_formula_units_Z   28
loop_
 _symmetry_equiv_pos_site_id
 _symmetry_equiv_pos_as_xyz
  1  'x, y, z'
loop_
 _atom_site_type_symbol
 _atom_site_label
 _atom_site_symmetry_multiplicity
 _atom_site_fract_x
 _atom_site_fract_y
 _atom_site_fract_z
 _atom_site_occupancy
  F  F0  1  0.00000000  0.00000000  0.00000000  1
  F  F1  1  0.50000000  -0.00000000  0.50000000  1
  F  F2  1  0.00000000  0.50000000  0.00000000  1
  F  F3  1  0.50000000  0.50000000  0.50000000  1
  F  F4  1  0.43077586  0.30365164  0.01429359  1
  F  F5  1  0.06922414  0.69634836  0.51429359  1
  F  F6  1  0.56922414  0.80365164  0.98570641  1
  F  F7  1  0.93077586  0.19634836  0.48570641  1
  F  F8  1  0.56922414  0.69634836  0.98570641  1
  F  F9  1  0.93077586  0.30365164  0.48570641  1
  F  F10  1  0.43077586  0.19634836  0.01429359  1
  F  F11  1  0.06922414  0.80365164  0.51429359  1
  F  F12  1  0.42509982  0.88870975  0.69129168  1
  F  F13  1  0.07490018  0.11129025  0.19129168  1
  F  F14  1  0.57490018  0.38870975  0.30870832  1
  F  F15  1  0.92509982  0.61129025  0.80870832  1
  F  F16  1  0.57490018  0.11129025  0.30870832  1
  F  F17  1  0.92509982  0.88870975  0.80870832  1
  F  F18  1  0.42509982  0.61129025  0.69129168  1
  F  F19  1  0.07490018  0.38870975  0.19129168  1
  F  F20  1  0.39302317  0.49130452  0.52869962  1
  F  F21  1  0.10697683  0.50869548  0.02869962  1
  F  F22  1  0.60697683  0.99130452  0.47130038  1
  F  F23  1  0.89302317  0.00869548  0.97130038  1
  F  F24  1  0.60697683  0.50869548  0.47130038  1
  F  F25  1  0.89302317  0.49130452  0.97130038  1
  F  F26  1  0.39302317  0.00869548  0.52869962  1
  F  F27  1  0.10697683  0.99130452  0.02869962  1
  Li  Li28  1  0.08264079  0.04052389  0.75592756  1
  Li  Li29  1  0.41735921  -0.04052389  1.25592756  1
  Li  Li30  1  -0.08264079  0.54052389  -0.75592756  1
  Li  Li31  1  0.58264079  0.45947611  -0.25592756  1
  Li  Li32  1  -0.08264079  -0.04052389  -0.75592756  1
  Li  Li33  1  0.58264079  0.04052389  -0.25592756  1
  Li  Li34  1  0.08264079  0.45947611  0.75592756  1
  Li  Li35  1  0.41735921  0.54052389  1.25592756  1
  Li  Li36  1  0.57267424  0.25000000  0.42423504  1
  Li  Li37  1  0.92732576  0.75000000  0.92423504  1
  Li  Li38  1  0.42732576  0.75000000  0.57576496  1
  Li  Li39  1  0.07267424  0.25000000  0.07576496  1
  Li  Li40  1  0.79246727  0.25000000  0.11727757  1
  Li  Li41  1  0.70753273  0.75000000  0.61727757  1
  Li  Li42  1  0.20753273  0.75000000  0.88272243  1
  Li  Li43  1  0.29246727  0.25000000  0.38272243  1
  Li  Li44  1  0.38154704  0.51247816  0.63920382  1
  Li  Li45  1  0.11845296  0.48752184  0.13920382  1
  Li  Li46  1  0.61845296  0.01247816  0.36079618  1
  Li  Li47  1  0.88154704  0.98752184  0.86079618  1
  Li  Li48  1  0.61845296  0.48752184  0.36079618  1
  Li  Li49  1  0.88154704  0.51247816  0.86079618  1
  Li  Li50  1  0.38154704  0.98752184  0.63920382  1
  Li  Li51  1  0.11845296  0.01247816  0.13920382  1
  Li  Li52  1  0.00000000  0.00000000  0.50000000  1
  Li  Li53  1  0.50000000  -0.00000000  -0.00000000  1
  Li  Li54  1  0.00000000  0.50000000  0.50000000  1
  Li  Li55  1  0.50000000  0.50000000  0.00000000  1
