# generated using pymatgen
data_LiF
_symmetry_space_group_name_H-M   'P 1'
_cell_length_a   10.75267474
_cell_length_b   7.72078252
_cell_length_c   9.09449394
_cell_angle_alpha   90.00000000
_cell_angle_beta   90.00000000
_cell_angle_gamma   90.00000000
_symmetry_Int_Tables_number   1
_chemical_formula_structural   LiF
_chemical_formula_sum   'Li24 F24'
_cell_volume   755.01636707
_cell_formula_units_Z   24
loop_
 _symmetry_equiv_pos_site_id
 _symmetry_equiv_pos_as_xyz
  1  'x, y, z'
loop_
 _atom_site_type_symbol
 _atom_site_label
 _atom_site_symmetry_multiplicity
 _atom_site_fract_x
 _atom_site_fract_y
 _atom_site_fract_z
 _atom_site_occupancy
  F  F0  1  0.40641616  0.85639925  0.67127886  1
  F  F1  1  0.09358384  0.14360075  0.17127886  1
  F  F2  1  0.59358384  0.35639925  0.32872114  1
  F  F3  1  0.90641616  0.64360075  0.82872114  1
  F  F4  1  0.59358384  0.14360075  0.32872114  1
  F  F5  1  0.90641616  0.85639925  0.82872114  1
  F  F6  1  0.40641616  0.64360075  0.67127886  1
  F  F7  1  0.09358384  0.35639925  0.17127886  1
  F  F8  1  0.62065216  0.95493627  0.21842686  1
  F  F9  1  0.87934784  0.04506373  0.71842686  1
  F  F10  1  0.37934784  0.45493627  0.78157314  1
  F  F11  1  0.12065216  0.54506373  0.28157314  1
  F  F12  1  0.37934784  0.04506373  0.78157314  1
  F  F13  1  0.12065216  0.95493627  0.28157314  1
  F  F14  1  0.62065216  0.54506373  0.21842686  1
  F  F15  1  0.87934784  0.45493627  0.71842686  1
  F  F16  1  0.00000000  0.00000000  0.50000000  1
  F  F17  1  0.50000000  0.00000000  0.00000000  1
  F  F18  1  0.00000000  0.50000000  0.50000000  1
  F  F19  1  0.50000000  0.50000000  0.00000000  1
  F  F20  1  0.06300943  0.25000000  0.26425441  1
  F  F21  1  0.43699057  0.75000000  0.76425441  1
  F  F22  1  0.93699057  0.75000000  0.73574559  1
  F  F23  1  0.56300943  0.25000000  0.23574559  1
  Li  Li24  1  0.53367302  0.52872232  0.64471198  1
  Li  Li25  1  -0.03367302  -0.52872232  1.14471198  1
  Li  Li26  1  -0.53367302  1.02872232  -0.64471198  1
  Li  Li27  1  1.03367302  -0.02872232  -0.14471198  1
  Li  Li28  1  -0.53367302  -0.52872232  -0.64471198  1
  Li  Li29  1  1.03367302  0.52872232  -0.14471198  1
  Li  Li30  1  0.53367302  -0.02872232  0.64471198  1
  Li  Li31  1  -0.03367302  1.02872232  1.14471198  1
  Li  Li32  1  0.66372542  0.55015463  0.47815964  1
  Li  Li33  1  0.83627458  0.44984537  0.97815964  1
  Li  Li34  1  0.33627458  0.05015463  0.52184036  1
  Li  Li35  1  0.16372542  0.94984537  0.02184036  1
  Li  Li36  1  0.33627458  0.44984537  0.52184036  1
  Li  Li37  1  0.16372542  0.55015463  0.02184036  1
  Li  Li38  1  0.66372542  0.94984537  0.47815964  1
  Li  Li39  1  0.83627458  0.05015463  0.97815964  1
  Li  Li40  1  0.29016299  0.87110137  0.74442721  1
  Li  Li41  1  0.20983701  0.12889863  0.24442721  1
  Li  Li42  1  0.70983701  0.37110137  0.25557279  1
  Li  Li43  1  0.79016299  0.62889863  0.75557279  1
  Li  Li44  1  0.70983701  0.12889863  0.25557279  1
  Li  Li45  1  0.79016299  0.87110137  0.75557279  1
  Li  Li46  1  0.29016299  0.62889863  0.74442721  1
  Li  Li47  1  0.20983701  0.37110137  0.24442721  1
