# generated using pymatgen
data_LiF
_symmetry_space_group_name_H-M   'P 1'
_cell_length_a   8.08050482
_cell_length_b   9.89692954
_cell_length_c   10.85593141
_cell_angle_alpha   90.00000000
_cell_angle_beta   90.00000000
_cell_angle_gamma   90.00000000
_symmetry_Int_Tables_number   1
_chemical_formula_structural   LiF
_chemical_formula_sum   'Li24 F24'
_cell_volume   868.17257526
_cell_formula_units_Z   24
loop_
 _symmetry_equiv_pos_site_id
 _symmetry_equiv_pos_as_xyz
  1  'x, y, z'
loop_
 _atom_site_type_symbol
 _atom_site_label
 _atom_site_symmetry_multiplicity
 _atom_site_fract_x
 _atom_site_fract_y
 _atom_site_fract_z
 _atom_site_occupancy
  F  F0  1  0.53058455  0.62007717  0.36932241  1
  F  F1  1  0.96941545  0.37992283  0.86932241  1
  F  F2  1  0.46941545  0.12007717  0.63067759  1
  F  F3  1  0.03058455  0.87992283  0.13067759  1
  F  F4  1  0.46941545  0.37992283  0.63067759  1
  F  F5  1  0.03058455  0.62007717  0.13067759  1
  F  F6  1  0.53058455  0.87992283  0.36932241  1
  F  F7  1  0.96941545  0.12007717  0.86932241  1
  F  F8  1  0.24255187  0.83439570  0.43618584  1
  F  F9  1  0.25744813  0.16560430  0.93618584  1
  F  F10  1  0.75744813  0.33439570  0.56381416  1
  F  F11  1  0.74255187  0.66560430  0.06381416  1
  F  F12  1  0.75744813  0.16560430  0.56381416  1
  F  F13  1  0.74255187  0.83439570  0.06381416  1
  F  F14  1  0.24255187  0.66560430  0.43618584  1
  F  F15  1  0.25744813  0.33439570  0.93618584  1
  F  F16  1  0.00000000  0.00000000  0.50000000  1
  F  F17  1  0.50000000  0.00000000  0.00000000  1
  F  F18  1  0.00000000  0.50000000  0.50000000  1
  F  F19  1  0.50000000  0.50000000  -0.00000000  1
  F  F20  1  0.05076199  0.25000000  0.75116720  1
  F  F21  1  0.44923801  0.75000000  0.25116720  1
  F  F22  1  0.94923801  0.75000000  0.24883280  1
  F  F23  1  0.55076199  0.25000000  0.74883280  1
  Li  Li24  1  0.40603385  0.25000000  0.25267560  1
  Li  Li25  1  0.09396615  0.75000000  0.75267560  1
  Li  Li26  1  0.59396615  0.75000000  0.74732440  1
  Li  Li27  1  0.90603385  0.25000000  0.24732440  1
  Li  Li28  1  0.00000000  0.00000000  0.00000000  1
  Li  Li29  1  0.50000000  0.00000000  0.50000000  1
  Li  Li30  1  0.00000000  0.50000000  0.00000000  1
  Li  Li31  1  0.50000000  0.50000000  0.50000000  1
  Li  Li32  1  0.08864647  0.36063316  0.12179101  1
  Li  Li33  1  0.41135353  -0.36063316  0.62179101  1
  Li  Li34  1  -0.08864647  0.86063316  -0.12179101  1
  Li  Li35  1  0.58864647  0.13936684  0.37820899  1
  Li  Li36  1  -0.08864647  -0.36063316  -0.12179101  1
  Li  Li37  1  0.58864647  0.36063316  0.37820899  1
  Li  Li38  1  0.08864647  0.13936684  0.12179101  1
  Li  Li39  1  0.41135353  0.86063316  0.62179101  1
  Li  Li40  1  0.01807152  0.47718514  0.76614707  1
  Li  Li41  1  0.48192848  0.52281486  0.26614707  1
  Li  Li42  1  0.98192848  0.97718514  0.23385293  1
  Li  Li43  1  0.51807152  0.02281486  0.73385293  1
  Li  Li44  1  0.98192848  0.52281486  0.23385293  1
  Li  Li45  1  0.51807152  0.47718514  0.73385293  1
  Li  Li46  1  0.01807152  0.02281486  0.76614707  1
  Li  Li47  1  0.48192848  0.97718514  0.26614707  1
