# generated using pymatgen
data_Li2Si4Te3F12
_symmetry_space_group_name_H-M   'P 1'
_cell_length_a   14.69975529
_cell_length_b   14.69975529
_cell_length_c   4.71089499
_cell_angle_alpha   90.00000000
_cell_angle_beta   90.00000000
_cell_angle_gamma   120.00000000
_symmetry_Int_Tables_number   1
_chemical_formula_structural   Li2Si4Te3F12
_chemical_formula_sum   'Li8 Si16 Te12 F48'
_cell_volume   881.56484946
_cell_formula_units_Z   4
loop_
 _symmetry_equiv_pos_site_id
 _symmetry_equiv_pos_as_xyz
  1  'x, y, z'
loop_
 _atom_site_type_symbol
 _atom_site_label
 _atom_site_symmetry_multiplicity
 _atom_site_fract_x
 _atom_site_fract_y
 _atom_site_fract_z
 _atom_site_occupancy
  F  F0  1  0.98995385  0.79859009  0.38835781  1
  F  F1  1  -0.79859009  0.19136377  0.38835781  1
  F  F2  1  -0.19136377  -0.98995385  0.38835781  1
  F  F3  1  -0.98995385  -0.79859009  0.88835781  1
  F  F4  1  0.79859009  -0.19136377  0.88835781  1
  F  F5  1  0.19136377  0.98995385  0.88835781  1
  F  F6  1  0.79859009  0.98995385  -0.38835781  1
  F  F7  1  0.19136377  -0.79859009  -0.38835781  1
  F  F8  1  -0.98995385  -0.19136377  -0.38835781  1
  F  F9  1  -0.79859009  -0.98995385  0.11164219  1
  F  F10  1  -0.19136377  0.79859009  0.11164219  1
  F  F11  1  0.98995385  0.19136377  0.11164219  1
  F  F12  1  -0.98995385  -0.79859009  -0.38835781  1
  F  F13  1  0.79859009  -0.19136377  -0.38835781  1
  F  F14  1  0.19136377  0.98995385  -0.38835781  1
  F  F15  1  0.98995385  0.79859009  0.11164219  1
  F  F16  1  -0.79859009  0.19136377  0.11164219  1
  F  F17  1  -0.19136377  -0.98995385  0.11164219  1
  F  F18  1  -0.79859009  -0.98995385  0.38835781  1
  F  F19  1  -0.19136377  0.79859009  0.38835781  1
  F  F20  1  0.98995385  0.19136377  0.38835781  1
  F  F21  1  0.79859009  0.98995385  0.88835781  1
  F  F22  1  0.19136377  -0.79859009  0.88835781  1
  F  F23  1  -0.98995385  -0.19136377  0.88835781  1
  F  F24  1  0.78950253  0.46639249  0.46752800  1
  F  F25  1  0.53360751  0.32311003  0.46752800  1
  F  F26  1  0.67688997  0.21049747  0.46752800  1
  F  F27  1  0.21049747  0.53360751  0.96752800  1
  F  F28  1  0.46639249  0.67688997  0.96752800  1
  F  F29  1  0.32311003  0.78950253  0.96752800  1
  F  F30  1  0.46639249  0.78950253  0.53247200  1
  F  F31  1  0.32311003  0.53360751  0.53247200  1
  F  F32  1  0.21049747  0.67688997  0.53247200  1
  F  F33  1  0.53360751  0.21049747  0.03247200  1
  F  F34  1  0.67688997  0.46639249  0.03247200  1
  F  F35  1  0.78950253  0.32311003  0.03247200  1
  F  F36  1  0.21049747  0.53360751  0.53247200  1
  F  F37  1  0.46639249  0.67688997  0.53247200  1
  F  F38  1  0.32311003  0.78950253  0.53247200  1
  F  F39  1  0.78950253  0.46639249  0.03247200  1
  F  F40  1  0.53360751  0.32311003  0.03247200  1
  F  F41  1  0.67688997  0.21049747  0.03247200  1
  F  F42  1  0.53360751  0.21049747  0.46752800  1
  F  F43  1  0.67688997  0.46639249  0.46752800  1
  F  F44  1  0.78950253  0.32311003  0.46752800  1
  F  F45  1  0.46639249  0.78950253  0.96752800  1
  F  F46  1  0.32311003  0.53360751  0.96752800  1
  F  F47  1  0.21049747  0.67688997  0.96752800  1
  Li  Li48  1  0.91597623  0.83195246  0.25000000  1
  Li  Li49  1  0.16804754  0.08402377  0.25000000  1
  Li  Li50  1  0.91597623  0.08402377  0.25000000  1
  Li  Li51  1  0.08402377  0.16804754  0.75000000  1
  Li  Li52  1  0.83195246  0.91597623  0.75000000  1
  Li  Li53  1  0.08402377  0.91597623  0.75000000  1
  Li  Li54  1  0.33333333  0.66666667  0.75000000  1
  Li  Li55  1  0.66666667  0.33333333  0.25000000  1
  Si  Si56  1  0.06238994  0.64427772  0.25000000  1
  Si  Si57  1  0.35572228  0.41811222  0.25000000  1
  Si  Si58  1  0.58188778  0.93761006  0.25000000  1
  Si  Si59  1  0.93761006  0.35572228  0.75000000  1
  Si  Si60  1  0.64427772  0.58188778  0.75000000  1
  Si  Si61  1  0.41811222  0.06238994  0.75000000  1
  Si  Si62  1  0.64427772  0.06238994  0.75000000  1
  Si  Si63  1  0.41811222  0.35572228  0.75000000  1
  Si  Si64  1  0.93761006  0.58188778  0.75000000  1
  Si  Si65  1  0.35572228  0.93761006  0.25000000  1
  Si  Si66  1  0.58188778  0.64427772  0.25000000  1
  Si  Si67  1  0.06238994  0.41811222  0.25000000  1
  Si  Si68  1  0.00000000  0.00000000  0.25000000  1
  Si  Si69  1  0.00000000  0.00000000  0.75000000  1
  Si  Si70  1  0.00000000  0.00000000  0.00000000  1
  Si  Si71  1  0.00000000  0.00000000  0.50000000  1
  Te  Te72  1  0.21282683  0.66043812  0.25000000  1
  Te  Te73  1  0.33956188  0.55238871  0.25000000  1
  Te  Te74  1  0.44761129  0.78717317  0.25000000  1
  Te  Te75  1  0.78717317  0.33956188  0.75000000  1
  Te  Te76  1  0.66043812  0.44761129  0.75000000  1
  Te  Te77  1  0.55238871  0.21282683  0.75000000  1
  Te  Te78  1  0.66043812  0.21282683  0.75000000  1
  Te  Te79  1  0.55238871  0.33956188  0.75000000  1
  Te  Te80  1  0.78717317  0.44761129  0.75000000  1
  Te  Te81  1  0.33956188  0.78717317  0.25000000  1
  Te  Te82  1  0.44761129  0.66043812  0.25000000  1
  Te  Te83  1  0.21282683  0.55238871  0.25000000  1
