# generated using pymatgen
data_Li2Y2MoP3Se2
_symmetry_space_group_name_H-M   'P 1'
_cell_length_a   5.18841804
_cell_length_b   5.39660932
_cell_length_c   7.12373489
_cell_angle_alpha   94.40820627
_cell_angle_beta   99.60015681
_cell_angle_gamma   107.70601259
_symmetry_Int_Tables_number   1
_chemical_formula_structural   Li2Y2MoP3Se2
_chemical_formula_sum   'Li2 Y2 Mo1 P3 Se2'
_cell_volume   185.61755228
_cell_formula_units_Z   1
loop_
 _symmetry_equiv_pos_site_id
 _symmetry_equiv_pos_as_xyz
  1  'x, y, z'
loop_
 _atom_site_type_symbol
 _atom_site_label
 _atom_site_symmetry_multiplicity
 _atom_site_fract_x
 _atom_site_fract_y
 _atom_site_fract_z
 _atom_site_occupancy
  Se  Se0  1  0.00000000  0.00000000  0.00000000  1
  Se  Se1  1  0.50000000  0.50000000  0.50000000  1
  Y  Y2  1  0.50000000  0.50000000  0.00000000  1
  Y  Y3  1  0.50000000  0.00000000  0.50000000  1
  P  P4  1  0.00000000  0.50000000  0.50000000  1
  P  P5  1  0.85195237  0.45729454  0.41937248  1
  P  P6  1  0.56219183  0.98468168  0.52621238  1
  Mo  Mo7  1  0.96264206  0.42084700  0.62995710  1
  Li  Li8  1  0.50081128  0.89899985  0.77557320  1
  Li  Li9  1  0.75889590  0.02248774  0.52606970  1
