# generated using pymatgen
data_LiF
_symmetry_space_group_name_H-M   'P 1'
_cell_length_a   14.66852703
_cell_length_b   14.66852703
_cell_length_c   4.68749420
_cell_angle_alpha   90.00000000
_cell_angle_beta   90.00000000
_cell_angle_gamma   120.00000000
_symmetry_Int_Tables_number   1
_chemical_formula_structural   LiF
_chemical_formula_sum   'Li31 F31'
_cell_volume   873.46274478
_cell_formula_units_Z   31
loop_
 _symmetry_equiv_pos_site_id
 _symmetry_equiv_pos_as_xyz
  1  'x, y, z'
loop_
 _atom_site_type_symbol
 _atom_site_label
 _atom_site_symmetry_multiplicity
 _atom_site_fract_x
 _atom_site_fract_y
 _atom_site_fract_z
 _atom_site_occupancy
  F  F0  1  0.91036933  0.01876994  0.23838444  1
  F  F1  1  0.98123006  0.89159939  0.23838444  1
  F  F2  1  0.10840061  0.08963067  0.23838444  1
  F  F3  1  0.98123006  0.08963067  0.76161556  1
  F  F4  1  0.10840061  0.01876994  0.76161556  1
  F  F5  1  0.91036933  0.89159939  0.76161556  1
  F  F6  1  0.27873642  0.25239962  0.74559847  1
  F  F7  1  0.74760038  0.02633679  0.74559847  1
  F  F8  1  0.97366321  0.72126358  0.74559847  1
  F  F9  1  0.74760038  0.72126358  0.25440153  1
  F  F10  1  0.97366321  0.25239962  0.25440153  1
  F  F11  1  0.27873642  0.02633679  0.25440153  1
  F  F12  1  0.11321703  0.88678297  0.50000000  1
  F  F13  1  0.11321703  0.22643406  0.50000000  1
  F  F14  1  0.77356594  0.88678297  0.50000000  1
  F  F15  1  0.48909091  0.41152095  0.09891916  1
  F  F16  1  0.58847905  0.07756996  0.09891916  1
  F  F17  1  0.92243004  0.51090909  0.09891916  1
  F  F18  1  0.58847905  0.51090909  0.90108084  1
  F  F19  1  0.92243004  0.41152095  0.90108084  1
  F  F20  1  0.48909091  0.07756996  0.90108084  1
  F  F21  1  0.95728551  0.16041396  0.86899335  1
  F  F22  1  0.83958604  0.79687154  0.86899335  1
  F  F23  1  0.20312846  0.04271449  0.86899335  1
  F  F24  1  0.83958604  0.04271449  0.13100665  1
  F  F25  1  0.20312846  0.16041396  0.13100665  1
  F  F26  1  0.95728551  0.79687154  0.13100665  1
  F  F27  1  0.63249414  0.36750586  0.00000000  1
  F  F28  1  0.63249414  0.26498827  0.00000000  1
  F  F29  1  0.73501173  0.36750586  0.00000000  1
  F  F30  1  0.66666667  0.33333333  0.00000000  1
  Li  Li31  1  0.66666667  0.33333333  0.50000000  1
  Li  Li32  1  0.33333333  0.66666667  0.00000000  1
  Li  Li33  1  0.26781578  0.73218422  0.50000000  1
  Li  Li34  1  0.26781578  0.53563156  0.50000000  1
  Li  Li35  1  0.46436844  0.73218422  0.50000000  1
  Li  Li36  1  0.23572777  0.90199091  0.73076180  1
  Li  Li37  1  -0.90199091  -0.66626314  0.73076180  1
  Li  Li38  1  0.66626314  -0.23572777  0.73076180  1
  Li  Li39  1  -0.90199091  -0.23572777  -0.73076180  1
  Li  Li40  1  0.66626314  0.90199091  -0.73076180  1
  Li  Li41  1  0.23572777  -0.66626314  -0.73076180  1
  Li  Li42  1  0.08475700  0.89668362  0.68358523  1
  Li  Li43  1  0.10331638  0.18807338  0.68358523  1
  Li  Li44  1  0.81192662  0.91524300  0.68358523  1
  Li  Li45  1  0.10331638  0.91524300  0.31641477  1
  Li  Li46  1  0.81192662  0.89668362  0.31641477  1
  Li  Li47  1  0.08475700  0.18807338  0.31641477  1
  Li  Li48  1  0.07601825  0.63034792  0.69667266  1
  Li  Li49  1  0.36965208  0.44567033  0.69667266  1
  Li  Li50  1  0.55432967  0.92398175  0.69667266  1
  Li  Li51  1  0.36965208  0.92398175  0.30332734  1
  Li  Li52  1  0.55432967  0.63034792  0.30332734  1
  Li  Li53  1  0.07601825  0.44567033  0.30332734  1
  Li  Li54  1  0.62027094  0.86859591  0.77849598  1
  Li  Li55  1  0.13140409  0.75167503  0.77849598  1
  Li  Li56  1  0.24832497  0.37972906  0.77849598  1
  Li  Li57  1  0.13140409  0.37972906  0.22150402  1
  Li  Li58  1  0.24832497  0.86859591  0.22150402  1
  Li  Li59  1  0.62027094  0.75167503  0.22150402  1
  Li  Li60  1  0.00000000  0.00000000  0.00000000  1
  Li  Li61  1  0.00000000  0.00000000  0.50000000  1
