# generated using pymatgen
data_LiAs2P
_symmetry_space_group_name_H-M   'P 1'
_cell_length_a   4.76321290
_cell_length_b   4.94789125
_cell_length_c   6.65733930
_cell_angle_alpha   94.62709122
_cell_angle_beta   99.54429666
_cell_angle_gamma   107.68369937
_symmetry_Int_Tables_number   1
_chemical_formula_structural   LiAs2P
_chemical_formula_sum   'Li2 As4 P2'
_cell_volume   145.97547550
_cell_formula_units_Z   2
loop_
 _symmetry_equiv_pos_site_id
 _symmetry_equiv_pos_as_xyz
  1  'x, y, z'
loop_
 _atom_site_type_symbol
 _atom_site_label
 _atom_site_symmetry_multiplicity
 _atom_site_fract_x
 _atom_site_fract_y
 _atom_site_fract_z
 _atom_site_occupancy
  P  P0  1  0.00000000  0.00000000  0.00000000  1
  P  P1  1  0.50000000  0.50000000  0.50000000  1
  As  As2  1  0.50000000  0.50000000  0.00000000  1
  As  As3  1  0.50000000  0.00000000  0.50000000  1
  As  As4  1  0.00000000  0.50000000  0.50000000  1
  As  As5  1  0.14829718  0.62984163  0.03720491  1
  Li  Li6  1  0.00016053  0.54745366  0.76550777  1
  Li  Li7  1  0.99391158  0.29898985  0.98696502  1
