# generated using pymatgen
data_LiCaF3
_symmetry_space_group_name_H-M   'P 1'
_cell_length_a   7.03079713
_cell_length_b   7.03079713
_cell_length_c   34.22781169
_cell_angle_alpha   90.00000000
_cell_angle_beta   90.00000000
_cell_angle_gamma   90.00000000
_symmetry_Int_Tables_number   1
_chemical_formula_structural   LiCaF3
_chemical_formula_sum   'Li18 Ca18 F54'
_cell_volume   1691.95289334
_cell_formula_units_Z   18
loop_
 _symmetry_equiv_pos_site_id
 _symmetry_equiv_pos_as_xyz
  1  'x, y, z'
loop_
 _atom_site_type_symbol
 _atom_site_label
 _atom_site_symmetry_multiplicity
 _atom_site_fract_x
 _atom_site_fract_y
 _atom_site_fract_z
 _atom_site_occupancy
  Ca  Ca0  1  0.66563180  0.66563180  0.63303897  1
  Ca  Ca1  1  0.33436820  0.33436820  0.63303897  1
  Ca  Ca2  1  0.33436820  0.66563180  0.63303897  1
  Ca  Ca3  1  0.66563180  0.33436820  0.63303897  1
  Ca  Ca4  1  0.33436820  0.66563180  0.36696103  1
  Ca  Ca5  1  0.66563180  0.33436820  0.36696103  1
  Ca  Ca6  1  0.66563180  0.66563180  0.36696103  1
  Ca  Ca7  1  0.33436820  0.33436820  0.36696103  1
  Ca  Ca8  1  0.00000000  0.50000000  0.00000000  1
  Ca  Ca9  1  0.50000000  0.00000000  0.00000000  1
  Ca  Ca10  1  0.68123445  0.68123445  0.43459430  1
  Ca  Ca11  1  0.31876555  0.31876555  0.43459430  1
  Ca  Ca12  1  0.31876555  0.68123445  0.43459430  1
  Ca  Ca13  1  0.68123445  0.31876555  0.43459430  1
  Ca  Ca14  1  0.31876555  0.68123445  0.56540570  1
  Ca  Ca15  1  0.68123445  0.31876555  0.56540570  1
  Ca  Ca16  1  0.68123445  0.68123445  0.56540570  1
  Ca  Ca17  1  0.31876555  0.31876555  0.56540570  1
  F  F18  1  0.00000000  0.50000000  0.06339845  1
  F  F19  1  0.50000000  0.00000000  0.06339845  1
  F  F20  1  0.00000000  0.50000000  0.93660155  1
  F  F21  1  0.50000000  0.00000000  0.93660155  1
  F  F22  1  0.84513199  -0.00000000  0.53906492  1
  F  F23  1  0.15486801  0.00000000  0.53906492  1
  F  F24  1  0.00000000  0.84513199  0.53906492  1
  F  F25  1  0.00000000  0.15486801  0.53906492  1
  F  F26  1  0.15486801  0.00000000  0.46093508  1
  F  F27  1  0.84513199  -0.00000000  0.46093508  1
  F  F28  1  0.00000000  0.84513199  0.46093508  1
  F  F29  1  0.00000000  0.15486801  0.46093508  1
  F  F30  1  0.67264983  0.94544061  0.27729390  1
  F  F31  1  -0.67264983  -0.94544061  0.27729390  1
  F  F32  1  -0.94544061  0.67264983  0.27729390  1
  F  F33  1  0.94544061  -0.67264983  0.27729390  1
  F  F34  1  -0.67264983  0.94544061  -0.27729390  1
  F  F35  1  0.67264983  -0.94544061  -0.27729390  1
  F  F36  1  0.94544061  0.67264983  -0.27729390  1
  F  F37  1  -0.94544061  -0.67264983  -0.27729390  1
  F  F38  1  -0.67264983  -0.94544061  -0.27729390  1
  F  F39  1  0.67264983  0.94544061  -0.27729390  1
  F  F40  1  0.94544061  -0.67264983  -0.27729390  1
  F  F41  1  -0.94544061  0.67264983  -0.27729390  1
  F  F42  1  0.67264983  -0.94544061  0.27729390  1
  F  F43  1  -0.67264983  0.94544061  0.27729390  1
  F  F44  1  -0.94544061  -0.67264983  0.27729390  1
  F  F45  1  0.94544061  0.67264983  0.27729390  1
  F  F46  1  0.43925571  0.69818369  0.74555221  1
  F  F47  1  0.56074429  0.30181631  0.74555221  1
  F  F48  1  0.30181631  0.43925571  0.74555221  1
  F  F49  1  0.69818369  0.56074429  0.74555221  1
  F  F50  1  0.56074429  0.69818369  0.25444779  1
  F  F51  1  0.43925571  0.30181631  0.25444779  1
  F  F52  1  0.69818369  0.43925571  0.25444779  1
  F  F53  1  0.30181631  0.56074429  0.25444779  1
  F  F54  1  0.56074429  0.30181631  0.25444779  1
  F  F55  1  0.43925571  0.69818369  0.25444779  1
  F  F56  1  0.69818369  0.56074429  0.25444779  1
  F  F57  1  0.30181631  0.43925571  0.25444779  1
  F  F58  1  0.43925571  0.30181631  0.74555221  1
  F  F59  1  0.56074429  0.69818369  0.74555221  1
  F  F60  1  0.30181631  0.56074429  0.74555221  1
  F  F61  1  0.69818369  0.43925571  0.74555221  1
  F  F62  1  0.14125312  0.14125312  0.39583944  1
  F  F63  1  0.85874688  0.85874688  0.39583944  1
  F  F64  1  0.85874688  0.14125312  0.39583944  1
  F  F65  1  0.14125312  0.85874688  0.39583944  1
  F  F66  1  0.85874688  0.14125312  0.60416056  1
  F  F67  1  0.14125312  0.85874688  0.60416056  1
  F  F68  1  0.14125312  0.14125312  0.60416056  1
  F  F69  1  0.85874688  0.85874688  0.60416056  1
  F  F70  1  0.00000000  0.00000000  0.00000000  1
  F  F71  1  0.50000000  0.50000000  0.00000000  1
  Li  Li72  1  0.24193959  0.00000000  0.62129844  1
  Li  Li73  1  0.75806041  -0.00000000  0.62129844  1
  Li  Li74  1  0.00000000  0.24193959  0.62129844  1
  Li  Li75  1  0.00000000  0.75806041  0.62129844  1
  Li  Li76  1  0.75806041  -0.00000000  0.37870156  1
  Li  Li77  1  0.24193959  0.00000000  0.37870156  1
  Li  Li78  1  0.00000000  0.24193959  0.37870156  1
  Li  Li79  1  0.00000000  0.75806041  0.37870156  1
  Li  Li80  1  0.50000000  0.50000000  0.02795599  1
  Li  Li81  1  0.50000000  0.50000000  0.97204401  1
  Li  Li82  1  0.33454251  -0.00000000  0.95707192  1
  Li  Li83  1  0.66545749  0.00000000  0.95707192  1
  Li  Li84  1  0.00000000  0.33454251  0.95707192  1
  Li  Li85  1  0.00000000  0.66545749  0.95707192  1
  Li  Li86  1  0.66545749  0.00000000  0.04292808  1
  Li  Li87  1  0.33454251  -0.00000000  0.04292808  1
  Li  Li88  1  0.00000000  0.33454251  0.04292808  1
  Li  Li89  1  0.00000000  0.66545749  0.04292808  1
