# generated using pymatgen
data_LiF
_symmetry_space_group_name_H-M   'P 1'
_cell_length_a   7.70216845
_cell_length_b   6.67565092
_cell_length_c   12.94543469
_cell_angle_alpha   90.00000000
_cell_angle_beta   90.00000000
_cell_angle_gamma   90.00000000
_symmetry_Int_Tables_number   1
_chemical_formula_structural   LiF
_chemical_formula_sum   'Li24 F24'
_cell_volume   665.61525902
_cell_formula_units_Z   24
loop_
 _symmetry_equiv_pos_site_id
 _symmetry_equiv_pos_as_xyz
  1  'x, y, z'
loop_
 _atom_site_type_symbol
 _atom_site_label
 _atom_site_symmetry_multiplicity
 _atom_site_fract_x
 _atom_site_fract_y
 _atom_site_fract_z
 _atom_site_occupancy
  F  F0  1  0.08689839  0.25000000  0.07905389  1
  F  F1  1  0.41310161  0.75000000  0.57905389  1
  F  F2  1  0.91310161  0.75000000  0.92094611  1
  F  F3  1  0.58689839  0.25000000  0.42094611  1
  F  F4  1  0.05498418  0.51615302  0.76280245  1
  F  F5  1  0.44501582  0.48384698  0.26280245  1
  F  F6  1  0.94501582  0.01615302  0.23719755  1
  F  F7  1  0.55498418  0.98384698  0.73719755  1
  F  F8  1  0.94501582  0.48384698  0.23719755  1
  F  F9  1  0.55498418  0.51615302  0.73719755  1
  F  F10  1  0.05498418  0.98384698  0.76280245  1
  F  F11  1  0.44501582  0.01615302  0.26280245  1
  F  F12  1  0.38808326  0.37085326  0.04352105  1
  F  F13  1  0.11191674  0.62914674  0.54352105  1
  F  F14  1  0.61191674  0.87085326  0.95647895  1
  F  F15  1  0.88808326  0.12914674  0.45647895  1
  F  F16  1  0.61191674  0.62914674  0.95647895  1
  F  F17  1  0.88808326  0.37085326  0.45647895  1
  F  F18  1  0.38808326  0.12914674  0.04352105  1
  F  F19  1  0.11191674  0.87085326  0.54352105  1
  F  F20  1  0.44125359  0.25000000  0.09041529  1
  F  F21  1  0.05874641  0.75000000  0.59041529  1
  F  F22  1  0.55874641  0.75000000  0.90958471  1
  F  F23  1  0.94125359  0.25000000  0.40958471  1
  Li  Li24  1  0.00000000  0.00000000  0.00000000  1
  Li  Li25  1  0.50000000  -0.00000000  0.50000000  1
  Li  Li26  1  0.00000000  0.50000000  0.00000000  1
  Li  Li27  1  0.50000000  0.50000000  0.50000000  1
  Li  Li28  1  0.39688109  0.56307676  0.66490825  1
  Li  Li29  1  0.10311891  -0.56307676  1.16490825  1
  Li  Li30  1  -0.39688109  1.06307676  -0.66490825  1
  Li  Li31  1  0.89688109  -0.06307676  -0.16490825  1
  Li  Li32  1  -0.39688109  -0.56307676  -0.66490825  1
  Li  Li33  1  0.89688109  0.56307676  -0.16490825  1
  Li  Li34  1  0.39688109  -0.06307676  0.66490825  1
  Li  Li35  1  0.10311891  1.06307676  1.16490825  1
  Li  Li36  1  0.30172522  0.25000000  0.55458492  1
  Li  Li37  1  0.19827478  0.75000000  0.05458492  1
  Li  Li38  1  0.69827478  0.75000000  0.44541508  1
  Li  Li39  1  0.80172522  0.25000000  0.94541508  1
  Li  Li40  1  0.98019435  0.25000000  0.77337995  1
  Li  Li41  1  0.51980565  0.75000000  0.27337995  1
  Li  Li42  1  0.01980565  0.75000000  0.22662005  1
  Li  Li43  1  0.48019435  0.25000000  0.72662005  1
  Li  Li44  1  0.00000000  0.00000000  0.50000000  1
  Li  Li45  1  0.50000000  -0.00000000  0.00000000  1
  Li  Li46  1  0.00000000  0.50000000  0.50000000  1
  Li  Li47  1  0.50000000  0.50000000  0.00000000  1
