# generated using pymatgen
data_Li2Y2As3P2Se
_symmetry_space_group_name_H-M   'P 1'
_cell_length_a   5.05492954
_cell_length_b   5.02430173
_cell_length_c   7.22333994
_cell_angle_alpha   94.73111140
_cell_angle_beta   100.30337706
_cell_angle_gamma   109.00299417
_symmetry_Int_Tables_number   1
_chemical_formula_structural   Li2Y2As3P2Se
_chemical_formula_sum   'Li2 Y2 As3 P2 Se1'
_cell_volume   168.69577088
_cell_formula_units_Z   1
loop_
 _symmetry_equiv_pos_site_id
 _symmetry_equiv_pos_as_xyz
  1  'x, y, z'
loop_
 _atom_site_type_symbol
 _atom_site_label
 _atom_site_symmetry_multiplicity
 _atom_site_fract_x
 _atom_site_fract_y
 _atom_site_fract_z
 _atom_site_occupancy
  Se  Se0  1  0.00000000  0.00000000  0.00000000  1
  P  P1  1  0.50000000  0.50000000  0.50000000  1
  P  P2  1  0.25000000  0.25000000  0.25000000  1
  As  As3  1  0.75000000  0.25000000  0.00000000  1
  As  As4  1  0.25000000  0.75000000  0.50000000  1
  As  As5  1  0.42643186  0.70750448  0.68748966  1
  Li  Li6  1  0.40668364  0.37630778  0.63818659  1
  Li  Li7  1  0.90774009  0.01501143  0.69147205  1
  Y  Y8  1  0.13325120  0.60765798  0.09476606  1
  Y  Y9  1  0.38221164  0.35950662  0.15826510  1
