# generated using pymatgen
data_LiF
_symmetry_space_group_name_H-M   'P 1'
_cell_length_a   9.93247416
_cell_length_b   15.64862748
_cell_length_c   5.94926055
_cell_angle_alpha   90.00000000
_cell_angle_beta   90.00000000
_cell_angle_gamma   90.00000000
_symmetry_Int_Tables_number   1
_chemical_formula_structural   LiF
_chemical_formula_sum   'Li28 F28'
_cell_volume   924.69111667
_cell_formula_units_Z   28
loop_
 _symmetry_equiv_pos_site_id
 _symmetry_equiv_pos_as_xyz
  1  'x, y, z'
loop_
 _atom_site_type_symbol
 _atom_site_label
 _atom_site_symmetry_multiplicity
 _atom_site_fract_x
 _atom_site_fract_y
 _atom_site_fract_z
 _atom_site_occupancy
  F  F0  1  0.55100353  0.90491149  0.43984147  1
  F  F1  1  0.94899647  0.09508851  0.93984147  1
  F  F2  1  0.44899647  0.40491149  0.56015853  1
  F  F3  1  0.05100353  0.59508851  0.06015853  1
  F  F4  1  0.44899647  0.09508851  0.56015853  1
  F  F5  1  0.05100353  0.90491149  0.06015853  1
  F  F6  1  0.55100353  0.59508851  0.43984147  1
  F  F7  1  0.94899647  0.40491149  0.93984147  1
  F  F8  1  0.84634175  0.69571552  0.83824513  1
  F  F9  1  0.65365825  0.30428448  0.33824513  1
  F  F10  1  0.15365825  0.19571552  0.16175487  1
  F  F11  1  0.34634175  0.80428448  0.66175487  1
  F  F12  1  0.15365825  0.30428448  0.16175487  1
  F  F13  1  0.34634175  0.69571552  0.66175487  1
  F  F14  1  0.84634175  0.80428448  0.83824513  1
  F  F15  1  0.65365825  0.19571552  0.33824513  1
  F  F16  1  0.62746190  0.25000000  0.57680862  1
  F  F17  1  0.87253810  0.75000000  0.07680862  1
  F  F18  1  0.37253810  0.75000000  0.42319138  1
  F  F19  1  0.12746190  0.25000000  0.92319138  1
  F  F20  1  0.92365990  0.15275211  0.61738191  1
  F  F21  1  0.57634010  0.84724789  0.11738191  1
  F  F22  1  0.07634010  0.65275211  0.38261809  1
  F  F23  1  0.42365990  0.34724789  0.88261809  1
  F  F24  1  0.07634010  0.84724789  0.38261809  1
  F  F25  1  0.42365990  0.15275211  0.88261809  1
  F  F26  1  0.92365990  0.34724789  0.61738191  1
  F  F27  1  0.57634010  0.65275211  0.11738191  1
  Li  Li28  1  0.88722732  0.39787761  0.77728989  1
  Li  Li29  1  -0.38722732  -0.39787761  1.27728989  1
  Li  Li30  1  -0.88722732  0.89787761  -0.77728989  1
  Li  Li31  1  1.38722732  0.10212239  -0.27728989  1
  Li  Li32  1  -0.88722732  -0.39787761  -0.77728989  1
  Li  Li33  1  1.38722732  0.39787761  -0.27728989  1
  Li  Li34  1  0.88722732  0.10212239  0.77728989  1
  Li  Li35  1  -0.38722732  0.89787761  1.27728989  1
  Li  Li36  1  0.00000000  0.00000000  0.50000000  1
  Li  Li37  1  0.50000000  0.00000000  0.00000000  1
  Li  Li38  1  0.00000000  0.50000000  0.50000000  1
  Li  Li39  1  0.50000000  0.50000000  0.00000000  1
  Li  Li40  1  0.50343156  0.37801386  0.14232964  1
  Li  Li41  1  0.99656844  0.62198614  0.64232964  1
  Li  Li42  1  0.49656844  0.87801386  0.85767036  1
  Li  Li43  1  0.00343156  0.12198614  0.35767036  1
  Li  Li44  1  0.49656844  0.62198614  0.85767036  1
  Li  Li45  1  0.00343156  0.37801386  0.35767036  1
  Li  Li46  1  0.50343156  0.12198614  0.14232964  1
  Li  Li47  1  0.99656844  0.87801386  0.64232964  1
  Li  Li48  1  0.42081001  0.25000000  0.94364078  1
  Li  Li49  1  0.07918999  0.75000000  0.44364078  1
  Li  Li50  1  0.57918999  0.75000000  0.05635922  1
  Li  Li51  1  0.92081001  0.25000000  0.55635922  1
  Li  Li52  1  0.00000000  0.00000000  0.00000000  1
  Li  Li53  1  0.50000000  0.00000000  0.50000000  1
  Li  Li54  1  0.00000000  0.50000000  -0.00000000  1
  Li  Li55  1  0.50000000  0.50000000  0.50000000  1
