# generated using pymatgen
data_LiF
_symmetry_space_group_name_H-M   'P 1'
_cell_length_a   9.14948876
_cell_length_b   10.79126771
_cell_length_c   11.04460010
_cell_angle_alpha   90.00000000
_cell_angle_beta   90.00000000
_cell_angle_gamma   90.00000000
_symmetry_Int_Tables_number   1
_chemical_formula_structural   LiF
_chemical_formula_sum   'Li28 F28'
_cell_volume   1090.48398076
_cell_formula_units_Z   28
loop_
 _symmetry_equiv_pos_site_id
 _symmetry_equiv_pos_as_xyz
  1  'x, y, z'
loop_
 _atom_site_type_symbol
 _atom_site_label
 _atom_site_symmetry_multiplicity
 _atom_site_fract_x
 _atom_site_fract_y
 _atom_site_fract_z
 _atom_site_occupancy
  F  F0  1  0.17974530  0.17476231  0.11664113  1
  F  F1  1  0.32025470  0.82523769  0.61664113  1
  F  F2  1  0.82025470  0.67476231  0.88335887  1
  F  F3  1  0.67974530  0.32523769  0.38335887  1
  F  F4  1  0.82025470  0.82523769  0.88335887  1
  F  F5  1  0.67974530  0.17476231  0.38335887  1
  F  F6  1  0.17974530  0.32523769  0.11664113  1
  F  F7  1  0.32025470  0.67476231  0.61664113  1
  F  F8  1  0.87834285  0.68689853  0.11003628  1
  F  F9  1  0.62165715  0.31310147  0.61003628  1
  F  F10  1  0.12165715  0.18689853  0.88996372  1
  F  F11  1  0.37834285  0.81310147  0.38996372  1
  F  F12  1  0.12165715  0.31310147  0.88996372  1
  F  F13  1  0.37834285  0.68689853  0.38996372  1
  F  F14  1  0.87834285  0.81310147  0.11003628  1
  F  F15  1  0.62165715  0.18689853  0.61003628  1
  F  F16  1  0.34702828  0.04374942  0.73575679  1
  F  F17  1  0.15297172  0.95625058  0.23575679  1
  F  F18  1  0.65297172  0.54374942  0.26424321  1
  F  F19  1  0.84702828  0.45625058  0.76424321  1
  F  F20  1  0.65297172  0.95625058  0.26424321  1
  F  F21  1  0.84702828  0.04374942  0.76424321  1
  F  F22  1  0.34702828  0.45625058  0.73575679  1
  F  F23  1  0.15297172  0.54374942  0.23575679  1
  F  F24  1  0.00000000  0.00000000  0.50000000  1
  F  F25  1  0.50000000  0.00000000  0.00000000  1
  F  F26  1  0.00000000  0.50000000  0.50000000  1
  F  F27  1  0.50000000  0.50000000  0.00000000  1
  Li  Li28  1  0.00000000  0.00000000  0.00000000  1
  Li  Li29  1  0.50000000  0.00000000  0.50000000  1
  Li  Li30  1  0.00000000  0.50000000  0.00000000  1
  Li  Li31  1  0.50000000  0.50000000  0.50000000  1
  Li  Li32  1  0.08559331  0.25000000  0.31627414  1
  Li  Li33  1  0.41440669  0.75000000  0.81627414  1
  Li  Li34  1  0.91440669  0.75000000  0.68372586  1
  Li  Li35  1  0.58559331  0.25000000  0.18372586  1
  Li  Li36  1  0.06816913  0.25000000  0.70519875  1
  Li  Li37  1  0.43183087  0.75000000  0.20519875  1
  Li  Li38  1  0.93183087  0.75000000  0.29480125  1
  Li  Li39  1  0.56816913  0.25000000  0.79480125  1
  Li  Li40  1  0.70879547  0.05918728  0.12893245  1
  Li  Li41  1  -0.20879547  -0.05918728  0.62893245  1
  Li  Li42  1  -0.70879547  0.55918728  -0.12893245  1
  Li  Li43  1  1.20879547  0.44081272  0.37106755  1
  Li  Li44  1  -0.70879547  -0.05918728  -0.12893245  1
  Li  Li45  1  1.20879547  0.05918728  0.37106755  1
  Li  Li46  1  0.70879547  0.44081272  0.12893245  1
  Li  Li47  1  -0.20879547  0.55918728  0.62893245  1
  Li  Li48  1  0.18609826  0.81131382  0.00425678  1
  Li  Li49  1  0.31390174  0.18868618  0.50425678  1
  Li  Li50  1  0.81390174  0.31131382  0.99574322  1
  Li  Li51  1  0.68609826  0.68868618  0.49574322  1
  Li  Li52  1  0.81390174  0.18868618  0.99574322  1
  Li  Li53  1  0.68609826  0.81131382  0.49574322  1
  Li  Li54  1  0.18609826  0.68868618  0.00425678  1
  Li  Li55  1  0.31390174  0.31131382  0.50425678  1
