# generated using pymatgen
data_LiF
_symmetry_space_group_name_H-M   'P 1'
_cell_length_a   11.19151368
_cell_length_b   8.51449109
_cell_length_c   13.70222357
_cell_angle_alpha   90.00000000
_cell_angle_beta   90.00000000
_cell_angle_gamma   90.00000000
_symmetry_Int_Tables_number   1
_chemical_formula_structural   LiF
_chemical_formula_sum   'Li44 F44'
_cell_volume   1305.68548077
_cell_formula_units_Z   44
loop_
 _symmetry_equiv_pos_site_id
 _symmetry_equiv_pos_as_xyz
  1  'x, y, z'
loop_
 _atom_site_type_symbol
 _atom_site_label
 _atom_site_symmetry_multiplicity
 _atom_site_fract_x
 _atom_site_fract_y
 _atom_site_fract_z
 _atom_site_occupancy
  F  F0  1  0.03069290  0.25000000  0.08845465  1
  F  F1  1  0.46930710  0.75000000  0.58845465  1
  F  F2  1  0.96930710  0.75000000  0.91154535  1
  F  F3  1  0.53069290  0.25000000  0.41154535  1
  F  F4  1  0.30424833  0.20115483  0.33837673  1
  F  F5  1  0.19575167  0.79884517  0.83837673  1
  F  F6  1  0.69575167  0.70115483  0.66162327  1
  F  F7  1  0.80424833  0.29884517  0.16162327  1
  F  F8  1  0.69575167  0.79884517  0.66162327  1
  F  F9  1  0.80424833  0.20115483  0.16162327  1
  F  F10  1  0.30424833  0.29884517  0.33837673  1
  F  F11  1  0.19575167  0.70115483  0.83837673  1
  F  F12  1  0.85746420  0.25000000  0.09829192  1
  F  F13  1  0.64253580  0.75000000  0.59829192  1
  F  F14  1  0.14253580  0.75000000  0.90170808  1
  F  F15  1  0.35746420  0.25000000  0.40170808  1
  F  F16  1  0.79651995  0.99559826  0.10413471  1
  F  F17  1  0.70348005  0.00440174  0.60413471  1
  F  F18  1  0.20348005  0.49559826  0.89586529  1
  F  F19  1  0.29651995  0.50440174  0.39586529  1
  F  F20  1  0.20348005  0.00440174  0.89586529  1
  F  F21  1  0.29651995  0.99559826  0.39586529  1
  F  F22  1  0.79651995  0.50440174  0.10413471  1
  F  F23  1  0.70348005  0.49559826  0.60413471  1
  F  F24  1  0.08130464  0.42882741  0.03133347  1
  F  F25  1  0.41869536  0.57117259  0.53133347  1
  F  F26  1  0.91869536  0.92882741  0.96866653  1
  F  F27  1  0.58130464  0.07117259  0.46866653  1
  F  F28  1  0.91869536  0.57117259  0.96866653  1
  F  F29  1  0.58130464  0.42882741  0.46866653  1
  F  F30  1  0.08130464  0.07117259  0.03133347  1
  F  F31  1  0.41869536  0.92882741  0.53133347  1
  F  F32  1  0.98710272  0.02569773  0.36459449  1
  F  F33  1  0.51289728  0.97430227  0.86459449  1
  F  F34  1  0.01289728  0.52569773  0.63540551  1
  F  F35  1  0.48710272  0.47430227  0.13540551  1
  F  F36  1  0.01289728  0.97430227  0.63540551  1
  F  F37  1  0.48710272  0.02569773  0.13540551  1
  F  F38  1  0.98710272  0.47430227  0.36459449  1
  F  F39  1  0.51289728  0.52569773  0.86459449  1
  F  F40  1  0.00000000  0.00000000  0.50000000  1
  F  F41  1  0.50000000  0.00000000  0.00000000  1
  F  F42  1  0.00000000  0.50000000  0.50000000  1
  F  F43  1  0.50000000  0.50000000  0.00000000  1
  Li  Li44  1  0.00000000  0.00000000  0.00000000  1
  Li  Li45  1  0.50000000  0.00000000  0.50000000  1
  Li  Li46  1  0.00000000  0.50000000  0.00000000  1
  Li  Li47  1  0.50000000  0.50000000  0.50000000  1
  Li  Li48  1  0.74012942  0.25000000  0.52101832  1
  Li  Li49  1  0.75987058  0.75000000  0.02101832  1
  Li  Li50  1  0.25987058  0.75000000  0.47898168  1
  Li  Li51  1  0.24012942  0.25000000  0.97898168  1
  Li  Li52  1  0.74564272  0.25000000  0.76294657  1
  Li  Li53  1  0.75435728  0.75000000  0.26294657  1
  Li  Li54  1  0.25435728  0.75000000  0.23705343  1
  Li  Li55  1  0.24564272  0.25000000  0.73705343  1
  Li  Li56  1  0.43234663  0.40058145  0.08325990  1
  Li  Li57  1  0.06765337  -0.40058145  0.58325990  1
  Li  Li58  1  -0.43234663  0.90058145  -0.08325990  1
  Li  Li59  1  0.93234663  0.09941855  0.41674010  1
  Li  Li60  1  -0.43234663  -0.40058145  -0.08325990  1
  Li  Li61  1  0.93234663  0.40058145  0.41674010  1
  Li  Li62  1  0.43234663  0.09941855  0.08325990  1
  Li  Li63  1  0.06765337  0.90058145  0.58325990  1
  Li  Li64  1  0.07647953  0.52963437  0.71720540  1
  Li  Li65  1  0.42352047  0.47036563  0.21720540  1
  Li  Li66  1  0.92352047  0.02963437  0.28279460  1
  Li  Li67  1  0.57647953  0.97036563  0.78279460  1
  Li  Li68  1  0.92352047  0.47036563  0.28279460  1
  Li  Li69  1  0.57647953  0.52963437  0.78279460  1
  Li  Li70  1  0.07647953  0.97036563  0.71720540  1
  Li  Li71  1  0.42352047  0.02963437  0.21720540  1
  Li  Li72  1  0.14943485  0.25000000  0.87790289  1
  Li  Li73  1  0.35056515  0.75000000  0.37790289  1
  Li  Li74  1  0.85056515  0.75000000  0.12209711  1
  Li  Li75  1  0.64943485  0.25000000  0.62209711  1
  Li  Li76  1  0.75535824  0.96052884  0.68208961  1
  Li  Li77  1  0.74464176  0.03947116  0.18208961  1
  Li  Li78  1  0.24464176  0.46052884  0.31791039  1
  Li  Li79  1  0.25535824  0.53947116  0.81791039  1
  Li  Li80  1  0.24464176  0.03947116  0.31791039  1
  Li  Li81  1  0.25535824  0.96052884  0.81791039  1
  Li  Li82  1  0.75535824  0.53947116  0.68208961  1
  Li  Li83  1  0.74464176  0.46052884  0.18208961  1
  Li  Li84  1  0.40108925  0.25000000  0.10394654  1
  Li  Li85  1  0.09891075  0.75000000  0.60394654  1
  Li  Li86  1  0.59891075  0.75000000  0.89605346  1
  Li  Li87  1  0.90108925  0.25000000  0.39605346  1
