# generated using pymatgen
data_LiF
_symmetry_space_group_name_H-M   'P 1'
_cell_length_a   14.83855026
_cell_length_b   11.71716027
_cell_length_c   13.71064895
_cell_angle_alpha   90.00000000
_cell_angle_beta   90.00000000
_cell_angle_gamma   90.00000000
_symmetry_Int_Tables_number   1
_chemical_formula_structural   LiF
_chemical_formula_sum   'Li80 F80'
_cell_volume   2383.81118906
_cell_formula_units_Z   80
loop_
 _symmetry_equiv_pos_site_id
 _symmetry_equiv_pos_as_xyz
  1  'x, y, z'
loop_
 _atom_site_type_symbol
 _atom_site_label
 _atom_site_symmetry_multiplicity
 _atom_site_fract_x
 _atom_site_fract_y
 _atom_site_fract_z
 _atom_site_occupancy
  F  F0  1  0.44320320  0.25000000  0.44095858  1
  F  F1  1  0.05679680  0.75000000  0.94095858  1
  F  F2  1  0.55679680  0.75000000  0.55904142  1
  F  F3  1  0.94320320  0.25000000  0.05904142  1
  F  F4  1  0.51561775  0.06271137  0.35854627  1
  F  F5  1  0.98438225  0.93728863  0.85854627  1
  F  F6  1  0.48438225  0.56271137  0.64145373  1
  F  F7  1  0.01561775  0.43728863  0.14145373  1
  F  F8  1  0.48438225  0.93728863  0.64145373  1
  F  F9  1  0.01561775  0.06271137  0.14145373  1
  F  F10  1  0.51561775  0.43728863  0.35854627  1
  F  F11  1  0.98438225  0.56271137  0.85854627  1
  F  F12  1  0.12665730  0.98247388  0.83491497  1
  F  F13  1  0.37334270  0.01752612  0.33491497  1
  F  F14  1  0.87334270  0.48247388  0.16508503  1
  F  F15  1  0.62665730  0.51752612  0.66508503  1
  F  F16  1  0.87334270  0.01752612  0.16508503  1
  F  F17  1  0.62665730  0.98247388  0.66508503  1
  F  F18  1  0.12665730  0.51752612  0.83491497  1
  F  F19  1  0.37334270  0.48247388  0.33491497  1
  F  F20  1  0.99571652  0.10031379  0.22524036  1
  F  F21  1  0.50428348  0.89968621  0.72524036  1
  F  F22  1  0.00428348  0.60031379  0.77475964  1
  F  F23  1  0.49571652  0.39968621  0.27475964  1
  F  F24  1  0.00428348  0.89968621  0.77475964  1
  F  F25  1  0.49571652  0.10031379  0.27475964  1
  F  F26  1  0.99571652  0.39968621  0.22524036  1
  F  F27  1  0.50428348  0.60031379  0.72524036  1
  F  F28  1  0.40279941  0.52468227  0.73554015  1
  F  F29  1  0.09720059  0.47531773  0.23554015  1
  F  F30  1  0.59720059  0.02468227  0.26445985  1
  F  F31  1  0.90279941  0.97531773  0.76445985  1
  F  F32  1  0.59720059  0.47531773  0.26445985  1
  F  F33  1  0.90279941  0.52468227  0.76445985  1
  F  F34  1  0.40279941  0.97531773  0.73554015  1
  F  F35  1  0.09720059  0.02468227  0.23554015  1
  F  F36  1  0.74114800  0.25000000  0.91849736  1
  F  F37  1  0.75885200  0.75000000  0.41849736  1
  F  F38  1  0.25885200  0.75000000  0.08150264  1
  F  F39  1  0.24114800  0.25000000  0.58150264  1
  F  F40  1  0.81514184  0.29049203  0.43410284  1
  F  F41  1  0.68485816  0.70950797  0.93410284  1
  F  F42  1  0.18485816  0.79049203  0.56589716  1
  F  F43  1  0.31514184  0.20950797  0.06589716  1
  F  F44  1  0.18485816  0.70950797  0.56589716  1
  F  F45  1  0.31514184  0.29049203  0.06589716  1
  F  F46  1  0.81514184  0.20950797  0.43410284  1
  F  F47  1  0.68485816  0.79049203  0.93410284  1
  F  F48  1  0.01467541  0.25000000  0.23758112  1
  F  F49  1  0.48532459  0.75000000  0.73758112  1
  F  F50  1  0.98532459  0.75000000  0.76241888  1
  F  F51  1  0.51467541  0.25000000  0.26241888  1
  F  F52  1  0.72959084  0.95254416  0.72989901  1
  F  F53  1  0.77040916  0.04745584  0.22989901  1
  F  F54  1  0.27040916  0.45254416  0.27010099  1
  F  F55  1  0.22959084  0.54745584  0.77010099  1
  F  F56  1  0.27040916  0.04745584  0.27010099  1
  F  F57  1  0.22959084  0.95254416  0.77010099  1
  F  F58  1  0.72959084  0.54745584  0.72989901  1
  F  F59  1  0.77040916  0.45254416  0.22989901  1
  F  F60  1  0.70729049  0.42704907  0.00411023  1
  F  F61  1  0.79270951  0.57295093  0.50411023  1
  F  F62  1  0.29270951  0.92704907  0.99588977  1
  F  F63  1  0.20729049  0.07295093  0.49588977  1
  F  F64  1  0.29270951  0.57295093  0.99588977  1
  F  F65  1  0.20729049  0.42704907  0.49588977  1
  F  F66  1  0.70729049  0.07295093  0.00411023  1
  F  F67  1  0.79270951  0.92704907  0.50411023  1
  F  F68  1  0.84597097  0.86354407  0.58146178  1
  F  F69  1  0.65402903  0.13645593  0.08146178  1
  F  F70  1  0.15402903  0.36354407  0.41853822  1
  F  F71  1  0.34597097  0.63645593  0.91853822  1
  F  F72  1  0.15402903  0.13645593  0.41853822  1
  F  F73  1  0.34597097  0.86354407  0.91853822  1
  F  F74  1  0.84597097  0.63645593  0.58146178  1
  F  F75  1  0.65402903  0.36354407  0.08146178  1
  F  F76  1  0.42880442  0.25000000  0.79515844  1
  F  F77  1  0.07119558  0.75000000  0.29515844  1
  F  F78  1  0.57119558  0.75000000  0.20484156  1
  F  F79  1  0.92880442  0.25000000  0.70484156  1
  Li  Li80  1  0.86474890  0.25000000  0.46036039  1
  Li  Li81  1  0.63525110  0.75000000  0.96036039  1
  Li  Li82  1  0.13525110  0.75000000  0.53963961  1
  Li  Li83  1  0.36474890  0.25000000  0.03963961  1
  Li  Li84  1  0.83305169  0.25000000  0.77907544  1
  Li  Li85  1  0.66694831  0.75000000  0.27907544  1
  Li  Li86  1  0.16694831  0.75000000  0.22092456  1
  Li  Li87  1  0.33305169  0.25000000  0.72092456  1
  Li  Li88  1  0.77679687  0.02579528  0.34895090  1
  Li  Li89  1  -0.27679687  -0.02579528  0.84895090  1
  Li  Li90  1  -0.77679687  0.52579528  -0.34895090  1
  Li  Li91  1  1.27679687  0.47420472  0.15104910  1
  Li  Li92  1  -0.77679687  -0.02579528  -0.34895090  1
  Li  Li93  1  1.27679687  0.02579528  0.15104910  1
  Li  Li94  1  0.77679687  0.47420472  0.34895090  1
  Li  Li95  1  -0.27679687  0.52579528  0.84895090  1
  Li  Li96  1  0.00000000  0.00000000  0.50000000  1
  Li  Li97  1  0.50000000  0.00000000  -0.00000000  1
  Li  Li98  1  0.00000000  0.50000000  0.50000000  1
  Li  Li99  1  0.50000000  0.50000000  -0.00000000  1
  Li  Li100  1  0.14980316  0.02117415  0.00044800  1
  Li  Li101  1  0.35019684  0.97882585  0.50044800  1
  Li  Li102  1  0.85019684  0.52117415  0.99955200  1
  Li  Li103  1  0.64980316  0.47882585  0.49955200  1
  Li  Li104  1  0.85019684  0.97882585  0.99955200  1
  Li  Li105  1  0.64980316  0.02117415  0.49955200  1
  Li  Li106  1  0.14980316  0.47882585  0.00044800  1
  Li  Li107  1  0.35019684  0.52117415  0.50044800  1
  Li  Li108  1  0.49201095  0.25000000  0.72029239  1
  Li  Li109  1  0.00798905  0.75000000  0.22029239  1
  Li  Li110  1  0.50798905  0.75000000  0.27970761  1
  Li  Li111  1  0.99201095  0.25000000  0.77970761  1
  Li  Li112  1  0.00000000  0.00000000  0.00000000  1
  Li  Li113  1  0.50000000  0.00000000  0.50000000  1
  Li  Li114  1  0.00000000  0.50000000  0.00000000  1
  Li  Li115  1  0.50000000  0.50000000  0.50000000  1
  Li  Li116  1  0.37972627  0.87041912  0.29804702  1
  Li  Li117  1  0.12027373  0.12958088  0.79804702  1
  Li  Li118  1  0.62027373  0.37041912  0.70195298  1
  Li  Li119  1  0.87972627  0.62958088  0.20195298  1
  Li  Li120  1  0.62027373  0.12958088  0.70195298  1
  Li  Li121  1  0.87972627  0.87041912  0.20195298  1
  Li  Li122  1  0.37972627  0.62958088  0.29804702  1
  Li  Li123  1  0.12027373  0.37041912  0.79804702  1
  Li  Li124  1  0.78470780  0.25000000  0.16738350  1
  Li  Li125  1  0.71529220  0.75000000  0.66738350  1
  Li  Li126  1  0.21529220  0.75000000  0.83261650  1
  Li  Li127  1  0.28470780  0.25000000  0.33261650  1
  Li  Li128  1  0.65237235  0.67316629  0.35114352  1
  Li  Li129  1  0.84762765  0.32683371  0.85114352  1
  Li  Li130  1  0.34762765  0.17316629  0.64885648  1
  Li  Li131  1  0.15237235  0.82683371  0.14885648  1
  Li  Li132  1  0.34762765  0.32683371  0.64885648  1
  Li  Li133  1  0.15237235  0.67316629  0.14885648  1
  Li  Li134  1  0.65237235  0.82683371  0.35114352  1
  Li  Li135  1  0.84762765  0.17316629  0.85114352  1
  Li  Li136  1  0.68549811  0.16766034  0.48829202  1
  Li  Li137  1  0.81450189  0.83233966  0.98829202  1
  Li  Li138  1  0.31450189  0.66766034  0.51170798  1
  Li  Li139  1  0.18549811  0.33233966  0.01170798  1
  Li  Li140  1  0.31450189  0.83233966  0.51170798  1
  Li  Li141  1  0.18549811  0.16766034  0.01170798  1
  Li  Li142  1  0.68549811  0.33233966  0.48829202  1
  Li  Li143  1  0.81450189  0.66766034  0.98829202  1
  Li  Li144  1  0.98459258  0.33642181  0.65274887  1
  Li  Li145  1  0.51540742  0.66357819  0.15274887  1
  Li  Li146  1  0.01540742  0.83642181  0.34725113  1
  Li  Li147  1  0.48459258  0.16357819  0.84725113  1
  Li  Li148  1  0.01540742  0.66357819  0.34725113  1
  Li  Li149  1  0.48459258  0.33642181  0.84725113  1
  Li  Li150  1  0.98459258  0.16357819  0.65274887  1
  Li  Li151  1  0.51540742  0.83642181  0.15274887  1
  Li  Li152  1  0.31311317  0.85873014  0.67350454  1
  Li  Li153  1  0.18688683  0.14126986  0.17350454  1
  Li  Li154  1  0.68688683  0.35873014  0.32649546  1
  Li  Li155  1  0.81311317  0.64126986  0.82649546  1
  Li  Li156  1  0.68688683  0.14126986  0.32649546  1
  Li  Li157  1  0.81311317  0.85873014  0.82649546  1
  Li  Li158  1  0.31311317  0.64126986  0.67350454  1
  Li  Li159  1  0.18688683  0.35873014  0.17350454  1
