# generated using pymatgen
data_LiF
_symmetry_space_group_name_H-M   'P 1'
_cell_length_a   7.91847867
_cell_length_b   10.65532274
_cell_length_c   10.26260545
_cell_angle_alpha   90.00000000
_cell_angle_beta   90.00000000
_cell_angle_gamma   90.00000000
_symmetry_Int_Tables_number   1
_chemical_formula_structural   LiF
_chemical_formula_sum   'Li40 F40'
_cell_volume   865.89651762
_cell_formula_units_Z   40
loop_
 _symmetry_equiv_pos_site_id
 _symmetry_equiv_pos_as_xyz
  1  'x, y, z'
loop_
 _atom_site_type_symbol
 _atom_site_label
 _atom_site_symmetry_multiplicity
 _atom_site_fract_x
 _atom_site_fract_y
 _atom_site_fract_z
 _atom_site_occupancy
  F  F0  1  0.20483972  0.92127993  0.68203079  1
  F  F1  1  0.29516028  0.07872007  0.18203079  1
  F  F2  1  0.79516028  0.42127993  0.31796921  1
  F  F3  1  0.70483972  0.57872007  0.81796921  1
  F  F4  1  0.79516028  0.07872007  0.31796921  1
  F  F5  1  0.70483972  0.92127993  0.81796921  1
  F  F6  1  0.20483972  0.57872007  0.68203079  1
  F  F7  1  0.29516028  0.42127993  0.18203079  1
  F  F8  1  0.97697030  0.57354608  0.60960889  1
  F  F9  1  0.52302970  0.42645392  0.10960889  1
  F  F10  1  0.02302970  0.07354608  0.39039111  1
  F  F11  1  0.47697030  0.92645392  0.89039111  1
  F  F12  1  0.02302970  0.42645392  0.39039111  1
  F  F13  1  0.47697030  0.57354608  0.89039111  1
  F  F14  1  0.97697030  0.92645392  0.60960889  1
  F  F15  1  0.52302970  0.07354608  0.10960889  1
  F  F16  1  0.67965608  0.92101584  0.38818781  1
  F  F17  1  0.82034392  0.07898416  0.88818781  1
  F  F18  1  0.32034392  0.42101584  0.61181219  1
  F  F19  1  0.17965608  0.57898416  0.11181219  1
  F  F20  1  0.32034392  0.07898416  0.61181219  1
  F  F21  1  0.17965608  0.92101584  0.11181219  1
  F  F22  1  0.67965608  0.57898416  0.38818781  1
  F  F23  1  0.82034392  0.42101584  0.88818781  1
  F  F24  1  0.23813052  0.19518292  0.71461733  1
  F  F25  1  0.26186948  0.80481708  0.21461733  1
  F  F26  1  0.76186948  0.69518292  0.28538267  1
  F  F27  1  0.73813052  0.30481708  0.78538267  1
  F  F28  1  0.76186948  0.80481708  0.28538267  1
  F  F29  1  0.73813052  0.19518292  0.78538267  1
  F  F30  1  0.23813052  0.30481708  0.71461733  1
  F  F31  1  0.26186948  0.69518292  0.21461733  1
  F  F32  1  0.05844174  0.70049120  0.55713265  1
  F  F33  1  0.44155826  0.29950880  0.05713265  1
  F  F34  1  0.94155826  0.20049120  0.44286735  1
  F  F35  1  0.55844174  0.79950880  0.94286735  1
  F  F36  1  0.94155826  0.29950880  0.44286735  1
  F  F37  1  0.55844174  0.70049120  0.94286735  1
  F  F38  1  0.05844174  0.79950880  0.55713265  1
  F  F39  1  0.44155826  0.20049120  0.05713265  1
  Li  Li40  1  0.57041409  0.92663372  0.73297113  1
  Li  Li41  1  -0.07041409  -0.92663372  1.23297113  1
  Li  Li42  1  -0.57041409  1.42663372  -0.73297113  1
  Li  Li43  1  1.07041409  -0.42663372  -0.23297113  1
  Li  Li44  1  -0.57041409  -0.92663372  -0.73297113  1
  Li  Li45  1  1.07041409  0.92663372  -0.23297113  1
  Li  Li46  1  0.57041409  -0.42663372  0.73297113  1
  Li  Li47  1  -0.07041409  1.42663372  1.23297113  1
  Li  Li48  1  0.42503791  0.25000000  0.91140127  1
  Li  Li49  1  0.07496209  0.75000000  0.41140127  1
  Li  Li50  1  0.57496209  0.75000000  0.08859873  1
  Li  Li51  1  0.92503791  0.25000000  0.58859873  1
  Li  Li52  1  0.95565270  0.67473792  0.20916372  1
  Li  Li53  1  0.54434730  0.32526208  0.70916372  1
  Li  Li54  1  0.04434730  0.17473792  0.79083628  1
  Li  Li55  1  0.45565270  0.82526208  0.29083628  1
  Li  Li56  1  0.04434730  0.32526208  0.79083628  1
  Li  Li57  1  0.45565270  0.67473792  0.29083628  1
  Li  Li58  1  0.95565270  0.82526208  0.20916372  1
  Li  Li59  1  0.54434730  0.17473792  0.70916372  1
  Li  Li60  1  0.44300756  0.25000000  0.24909356  1
  Li  Li61  1  0.05699244  0.75000000  0.74909356  1
  Li  Li62  1  0.55699244  0.75000000  0.75090644  1
  Li  Li63  1  0.94300756  0.25000000  0.25090644  1
  Li  Li64  1  0.00000000  0.00000000  0.50000000  1
  Li  Li65  1  0.50000000  -0.00000000  -0.00000000  1
  Li  Li66  1  0.00000000  0.50000000  0.50000000  1
  Li  Li67  1  0.50000000  0.50000000  -0.00000000  1
  Li  Li68  1  0.00000000  0.00000000  0.00000000  1
  Li  Li69  1  0.50000000  -0.00000000  0.50000000  1
  Li  Li70  1  0.00000000  0.50000000  0.00000000  1
  Li  Li71  1  0.50000000  0.50000000  0.50000000  1
  Li  Li72  1  0.80032630  0.47058713  0.61046211  1
  Li  Li73  1  0.69967370  0.52941287  0.11046211  1
  Li  Li74  1  0.19967370  0.97058713  0.38953789  1
  Li  Li75  1  0.30032630  0.02941287  0.88953789  1
  Li  Li76  1  0.19967370  0.52941287  0.38953789  1
  Li  Li77  1  0.30032630  0.47058713  0.88953789  1
  Li  Li78  1  0.80032630  0.02941287  0.61046211  1
  Li  Li79  1  0.69967370  0.97058713  0.11046211  1
