# generated using pymatgen
data_LiF
_symmetry_space_group_name_H-M   'P 1'
_cell_length_a   11.39201330
_cell_length_b   8.19886383
_cell_length_c   8.33217412
_cell_angle_alpha   90.00000000
_cell_angle_beta   90.00000000
_cell_angle_gamma   90.00000000
_symmetry_Int_Tables_number   1
_chemical_formula_structural   LiF
_chemical_formula_sum   'Li28 F28'
_cell_volume   778.23810947
_cell_formula_units_Z   28
loop_
 _symmetry_equiv_pos_site_id
 _symmetry_equiv_pos_as_xyz
  1  'x, y, z'
loop_
 _atom_site_type_symbol
 _atom_site_label
 _atom_site_symmetry_multiplicity
 _atom_site_fract_x
 _atom_site_fract_y
 _atom_site_fract_z
 _atom_site_occupancy
  F  F0  1  0.00000000  0.00000000  0.50000000  1
  F  F1  1  0.50000000  0.00000000  -0.00000000  1
  F  F2  1  0.00000000  0.50000000  0.50000000  1
  F  F3  1  0.50000000  0.50000000  -0.00000000  1
  F  F4  1  0.10262235  0.20429459  0.45936279  1
  F  F5  1  0.39737765  0.79570541  0.95936279  1
  F  F6  1  0.89737765  0.70429459  0.54063721  1
  F  F7  1  0.60262235  0.29570541  0.04063721  1
  F  F8  1  0.89737765  0.79570541  0.54063721  1
  F  F9  1  0.60262235  0.20429459  0.04063721  1
  F  F10  1  0.10262235  0.29570541  0.45936279  1
  F  F11  1  0.39737765  0.70429459  0.95936279  1
  F  F12  1  0.49973010  0.60837043  0.39707209  1
  F  F13  1  0.00026990  0.39162957  0.89707209  1
  F  F14  1  0.50026990  0.10837043  0.60292791  1
  F  F15  1  0.99973010  0.89162957  0.10292791  1
  F  F16  1  0.50026990  0.39162957  0.60292791  1
  F  F17  1  0.99973010  0.60837043  0.10292791  1
  F  F18  1  0.49973010  0.89162957  0.39707209  1
  F  F19  1  0.00026990  0.10837043  0.89707209  1
  F  F20  1  0.12346577  0.50988268  0.42162825  1
  F  F21  1  0.37653423  0.49011732  0.92162825  1
  F  F22  1  0.87653423  0.00988268  0.57837175  1
  F  F23  1  0.62346577  0.99011732  0.07837175  1
  F  F24  1  0.87653423  0.49011732  0.57837175  1
  F  F25  1  0.62346577  0.50988268  0.07837175  1
  F  F26  1  0.12346577  0.99011732  0.42162825  1
  F  F27  1  0.37653423  0.00988268  0.92162825  1
  Li  Li28  1  0.49022953  0.25000000  0.67132420  1
  Li  Li29  1  0.00977047  0.75000000  0.17132420  1
  Li  Li30  1  0.50977047  0.75000000  0.32867580  1
  Li  Li31  1  0.99022953  0.25000000  0.82867580  1
  Li  Li32  1  0.08103860  0.16592263  0.05640294  1
  Li  Li33  1  0.41896140  -0.16592263  0.55640294  1
  Li  Li34  1  -0.08103860  0.66592263  -0.05640294  1
  Li  Li35  1  0.58103860  0.33407737  0.44359706  1
  Li  Li36  1  -0.08103860  -0.16592263  -0.05640294  1
  Li  Li37  1  0.58103860  0.16592263  0.44359706  1
  Li  Li38  1  0.08103860  0.33407737  0.05640294  1
  Li  Li39  1  0.41896140  0.66592263  0.55640294  1
  Li  Li40  1  0.89375233  0.36929151  0.91435334  1
  Li  Li41  1  0.60624767  0.63070849  0.41435334  1
  Li  Li42  1  0.10624767  0.86929151  0.08564666  1
  Li  Li43  1  0.39375233  0.13070849  0.58564666  1
  Li  Li44  1  0.10624767  0.63070849  0.08564666  1
  Li  Li45  1  0.39375233  0.36929151  0.58564666  1
  Li  Li46  1  0.89375233  0.13070849  0.91435334  1
  Li  Li47  1  0.60624767  0.86929151  0.41435334  1
  Li  Li48  1  0.34684131  0.63883503  0.79685730  1
  Li  Li49  1  0.15315869  0.36116497  0.29685730  1
  Li  Li50  1  0.65315869  0.13883503  0.20314270  1
  Li  Li51  1  0.84684131  0.86116497  0.70314270  1
  Li  Li52  1  0.65315869  0.36116497  0.20314270  1
  Li  Li53  1  0.84684131  0.63883503  0.70314270  1
  Li  Li54  1  0.34684131  0.86116497  0.79685730  1
  Li  Li55  1  0.15315869  0.13883503  0.29685730  1
