# generated using pymatgen
data_Li4TeF2
_symmetry_space_group_name_H-M   'P 1'
_cell_length_a   8.72148980
_cell_length_b   8.72148980
_cell_length_c   46.25920901
_cell_angle_alpha   90.00000000
_cell_angle_beta   90.00000000
_cell_angle_gamma   120.00000000
_symmetry_Int_Tables_number   1
_chemical_formula_structural   Li4TeF2
_chemical_formula_sum   'Li96 Te24 F48'
_cell_volume   3047.26475297
_cell_formula_units_Z   24
loop_
 _symmetry_equiv_pos_site_id
 _symmetry_equiv_pos_as_xyz
  1  'x, y, z'
loop_
 _atom_site_type_symbol
 _atom_site_label
 _atom_site_symmetry_multiplicity
 _atom_site_fract_x
 _atom_site_fract_y
 _atom_site_fract_z
 _atom_site_occupancy
  F  F0  1  0.66666667  0.33333333  0.50000000  1
  F  F1  1  0.33333333  0.66666667  0.34455135  1
  F  F2  1  0.33333333  0.66666667  0.65544865  1
  F  F3  1  0.00000000  0.00000000  0.00000000  1
  F  F4  1  0.93749553  0.60848177  0.40847665  1
  F  F5  1  -0.60848177  0.32901375  0.40847665  1
  F  F6  1  -0.32901375  -0.93749553  0.40847665  1
  F  F7  1  -0.60848177  -0.93749553  -0.40847665  1
  F  F8  1  -0.32901375  0.60848177  -0.40847665  1
  F  F9  1  0.93749553  0.32901375  -0.40847665  1
  F  F10  1  0.83217291  0.02432844  0.39525560  1
  F  F11  1  0.97567156  0.80784447  0.39525560  1
  F  F12  1  0.19215553  0.16782709  0.39525560  1
  F  F13  1  0.97567156  0.16782709  0.60474440  1
  F  F14  1  0.19215553  0.02432844  0.60474440  1
  F  F15  1  0.83217291  0.80784447  0.60474440  1
  F  F16  1  0.37014382  0.57494453  0.99375993  1
  F  F17  1  0.42505547  0.79519928  0.99375993  1
  F  F18  1  0.20480072  0.62985618  0.99375993  1
  F  F19  1  0.42505547  0.62985618  0.00624007  1
  F  F20  1  0.20480072  0.57494453  0.00624007  1
  F  F21  1  0.37014382  0.79519928  0.00624007  1
  F  F22  1  0.48823703  0.73206146  0.80492660  1
  F  F23  1  0.26793854  0.75617558  0.80492660  1
  F  F24  1  0.24382442  0.51176297  0.80492660  1
  F  F25  1  0.26793854  0.51176297  0.19507340  1
  F  F26  1  0.24382442  0.73206146  0.19507340  1
  F  F27  1  0.48823703  0.75617558  0.19507340  1
  F  F28  1  0.14255712  0.22751016  0.62769442  1
  F  F29  1  0.77248984  0.91504697  0.62769442  1
  F  F30  1  0.08495303  0.85744288  0.62769442  1
  F  F31  1  0.77248984  0.85744288  0.37230558  1
  F  F32  1  0.08495303  0.22751016  0.37230558  1
  F  F33  1  0.14255712  0.91504697  0.37230558  1
  F  F34  1  0.50425384  0.99749210  0.21338327  1
  F  F35  1  0.00250790  0.50676174  0.21338327  1
  F  F36  1  0.49323826  0.49574616  0.21338327  1
  F  F37  1  0.00250790  0.49574616  0.78661673  1
  F  F38  1  0.49323826  0.99749210  0.78661673  1
  F  F39  1  0.50425384  0.50676174  0.78661673  1
  F  F40  1  0.89558564  0.73915701  0.64365720  1
  F  F41  1  0.26084299  0.15642863  0.64365720  1
  F  F42  1  0.84357137  0.10441436  0.64365720  1
  F  F43  1  0.26084299  0.10441436  0.35634280  1
  F  F44  1  0.84357137  0.73915701  0.35634280  1
  F  F45  1  0.89558564  0.15642863  0.35634280  1
  F  F46  1  0.33333333  0.66666667  0.00000000  1
  F  F47  1  0.33333333  0.66666667  0.50000000  1
  Li  Li48  1  0.01074558  0.10360814  0.05744390  1
  Li  Li49  1  0.89639186  0.90713745  0.05744390  1
  Li  Li50  1  0.09286255  0.98925442  0.05744390  1
  Li  Li51  1  0.89639186  0.98925442  0.94255610  1
  Li  Li52  1  0.09286255  0.10360814  0.94255610  1
  Li  Li53  1  0.01074558  0.90713745  0.94255610  1
  Li  Li54  1  0.19270717  0.43126488  0.01703490  1
  Li  Li55  1  0.56873512  0.76144229  0.01703490  1
  Li  Li56  1  0.23855771  0.80729283  0.01703490  1
  Li  Li57  1  0.56873512  0.80729283  0.98296510  1
  Li  Li58  1  0.23855771  0.43126488  0.98296510  1
  Li  Li59  1  0.19270717  0.76144229  0.98296510  1
  Li  Li60  1  0.00762429  0.09256569  0.82382451  1
  Li  Li61  1  0.90743431  0.91505860  0.82382451  1
  Li  Li62  1  0.08494140  0.99237571  0.82382451  1
  Li  Li63  1  0.90743431  0.99237571  0.17617549  1
  Li  Li64  1  0.08494140  0.09256569  0.17617549  1
  Li  Li65  1  0.00762429  0.91505860  0.17617549  1
  Li  Li66  1  0.52557604  0.47442396  0.50000000  1
  Li  Li67  1  0.52557604  0.05115208  0.50000000  1
  Li  Li68  1  0.94884792  0.47442396  0.50000000  1
  Li  Li69  1  0.54500364  0.78911157  0.39321664  1
  Li  Li70  1  0.21088843  0.75589207  0.39321664  1
  Li  Li71  1  0.24410793  0.45499636  0.39321664  1
  Li  Li72  1  0.21088843  0.45499636  0.60678336  1
  Li  Li73  1  0.24410793  0.78911157  0.60678336  1
  Li  Li74  1  0.54500364  0.75589207  0.60678336  1
  Li  Li75  1  0.02843756  0.92604431  0.91059591  1
  Li  Li76  1  0.07395569  0.10239325  0.91059591  1
  Li  Li77  1  0.89760675  0.97156244  0.91059591  1
  Li  Li78  1  0.07395569  0.97156244  0.08940409  1
  Li  Li79  1  0.89760675  0.92604431  0.08940409  1
  Li  Li80  1  0.02843756  0.10239325  0.08940409  1
  Li  Li81  1  0.66707471  0.62735720  0.76620173  1
  Li  Li82  1  0.37264280  0.03971751  0.76620173  1
  Li  Li83  1  0.96028249  0.33292529  0.76620173  1
  Li  Li84  1  0.37264280  0.33292529  0.23379827  1
  Li  Li85  1  0.96028249  0.62735720  0.23379827  1
  Li  Li86  1  0.66707471  0.03971751  0.23379827  1
  Li  Li87  1  0.23826124  0.76173876  0.50000000  1
  Li  Li88  1  0.23826124  0.47652248  0.50000000  1
  Li  Li89  1  0.52347752  0.76173876  0.50000000  1
  Li  Li90  1  0.22002306  0.09661561  0.32762117  1
  Li  Li91  1  0.90338439  0.12340745  0.32762117  1
  Li  Li92  1  0.87659255  0.77997694  0.32762117  1
  Li  Li93  1  0.90338439  0.77997694  0.67237883  1
  Li  Li94  1  0.87659255  0.09661561  0.67237883  1
  Li  Li95  1  0.22002306  0.12340745  0.67237883  1
  Li  Li96  1  0.33333333  0.66666667  0.88255616  1
  Li  Li97  1  0.33333333  0.66666667  0.11744384  1
  Li  Li98  1  0.71217172  0.06212851  0.63369016  1
  Li  Li99  1  0.93787149  0.65004321  0.63369016  1
  Li  Li100  1  0.34995679  0.28782828  0.63369016  1
  Li  Li101  1  0.93787149  0.28782828  0.36630984  1
  Li  Li102  1  0.34995679  0.06212851  0.36630984  1
  Li  Li103  1  0.71217172  0.65004321  0.36630984  1
  Li  Li104  1  0.27879606  0.41197554  0.65681974  1
  Li  Li105  1  0.58802446  0.86682052  0.65681974  1
  Li  Li106  1  0.13317948  0.72120394  0.65681974  1
  Li  Li107  1  0.58802446  0.72120394  0.34318026  1
  Li  Li108  1  0.13317948  0.41197554  0.34318026  1
  Li  Li109  1  0.27879606  0.86682052  0.34318026  1
  Li  Li110  1  0.65850656  0.10796510  0.54419079  1
  Li  Li111  1  0.89203490  0.55054145  0.54419079  1
  Li  Li112  1  0.44945855  0.34149344  0.54419079  1
  Li  Li113  1  0.89203490  0.34149344  0.45580921  1
  Li  Li114  1  0.44945855  0.10796510  0.45580921  1
  Li  Li115  1  0.65850656  0.55054145  0.45580921  1
  Li  Li116  1  0.73661952  0.60045008  0.20809445  1
  Li  Li117  1  0.39954992  0.13616944  0.20809445  1
  Li  Li118  1  0.86383056  0.26338048  0.20809445  1
  Li  Li119  1  0.39954992  0.26338048  0.79190555  1
  Li  Li120  1  0.86383056  0.60045008  0.79190555  1
  Li  Li121  1  0.73661952  0.13616944  0.79190555  1
  Li  Li122  1  0.89341889  0.67041136  0.94272044  1
  Li  Li123  1  0.32958864  0.22300753  0.94272044  1
  Li  Li124  1  0.77699247  0.10658111  0.94272044  1
  Li  Li125  1  0.32958864  0.10658111  0.05727956  1
  Li  Li126  1  0.77699247  0.67041136  0.05727956  1
  Li  Li127  1  0.89341889  0.22300753  0.05727956  1
  Li  Li128  1  0.88249655  0.54544951  0.85548854  1
  Li  Li129  1  0.45455049  0.33704704  0.85548854  1
  Li  Li130  1  0.66295296  0.11750345  0.85548854  1
  Li  Li131  1  0.45455049  0.11750345  0.14451146  1
  Li  Li132  1  0.66295296  0.54544951  0.14451146  1
  Li  Li133  1  0.88249655  0.33704704  0.14451146  1
  Li  Li134  1  0.00000000  0.00000000  0.50000000  1
  Li  Li135  1  0.39093371  0.55788318  0.71890907  1
  Li  Li136  1  0.44211682  0.83305053  0.71890907  1
  Li  Li137  1  0.16694947  0.60906629  0.71890907  1
  Li  Li138  1  0.44211682  0.60906629  0.28109093  1
  Li  Li139  1  0.16694947  0.55788318  0.28109093  1
  Li  Li140  1  0.39093371  0.83305053  0.28109093  1
  Li  Li141  1  0.66666667  0.33333333  0.00000000  1
  Li  Li142  1  0.00000000  0.00000000  0.62746018  1
  Li  Li143  1  0.00000000  0.00000000  0.37253982  1
  Te  Te144  1  0.88047397  0.97150152  0.29465169  1
  Te  Te145  1  0.02849848  0.90897245  0.29465169  1
  Te  Te146  1  0.09102755  0.11952603  0.29465169  1
  Te  Te147  1  0.02849848  0.11952603  0.70534831  1
  Te  Te148  1  0.09102755  0.97150152  0.70534831  1
  Te  Te149  1  0.88047397  0.90897245  0.70534831  1
  Te  Te150  1  0.23822316  0.69469105  0.32452939  1
  Te  Te151  1  0.30530895  0.54353210  0.32452939  1
  Te  Te152  1  0.45646790  0.76177684  0.32452939  1
  Te  Te153  1  0.30530895  0.76177684  0.67547061  1
  Te  Te154  1  0.45646790  0.69469105  0.67547061  1
  Te  Te155  1  0.23822316  0.54353210  0.67547061  1
  Te  Te156  1  0.72131579  0.17766985  0.26004455  1
  Te  Te157  1  0.82233015  0.54364593  0.26004455  1
  Te  Te158  1  0.45635407  0.27868421  0.26004455  1
  Te  Te159  1  0.82233015  0.27868421  0.73995545  1
  Te  Te160  1  0.45635407  0.17766985  0.73995545  1
  Te  Te161  1  0.72131579  0.54364593  0.73995545  1
  Te  Te162  1  0.54258315  0.76894911  0.44322760  1
  Te  Te163  1  0.23105089  0.77363404  0.44322760  1
  Te  Te164  1  0.22636596  0.45741685  0.44322760  1
  Te  Te165  1  0.23105089  0.45741685  0.55677240  1
  Te  Te166  1  0.22636596  0.76894911  0.55677240  1
  Te  Te167  1  0.54258315  0.77363404  0.55677240  1
