# generated using pymatgen
data_LiF
_symmetry_space_group_name_H-M   'P 1'
_cell_length_a   6.08549316
_cell_length_b   8.24920897
_cell_length_c   7.43589174
_cell_angle_alpha   90.00000000
_cell_angle_beta   90.00000000
_cell_angle_gamma   90.00000000
_symmetry_Int_Tables_number   1
_chemical_formula_structural   LiF
_chemical_formula_sum   'Li24 F24'
_cell_volume   373.28551905
_cell_formula_units_Z   24
loop_
 _symmetry_equiv_pos_site_id
 _symmetry_equiv_pos_as_xyz
  1  'x, y, z'
loop_
 _atom_site_type_symbol
 _atom_site_label
 _atom_site_symmetry_multiplicity
 _atom_site_fract_x
 _atom_site_fract_y
 _atom_site_fract_z
 _atom_site_occupancy
  F  F0  1  0.30419223  0.14496472  0.86759210  1
  F  F1  1  0.19580777  0.85503528  0.36759210  1
  F  F2  1  0.69580777  0.64496472  0.13240790  1
  F  F3  1  0.80419223  0.35503528  0.63240790  1
  F  F4  1  0.69580777  0.85503528  0.13240790  1
  F  F5  1  0.80419223  0.14496472  0.63240790  1
  F  F6  1  0.30419223  0.35503528  0.86759210  1
  F  F7  1  0.19580777  0.64496472  0.36759210  1
  F  F8  1  0.82938776  0.93304640  0.49737379  1
  F  F9  1  0.67061224  0.06695360  0.99737379  1
  F  F10  1  0.17061224  0.43304640  0.50262621  1
  F  F11  1  0.32938776  0.56695360  0.00262621  1
  F  F12  1  0.17061224  0.06695360  0.50262621  1
  F  F13  1  0.32938776  0.93304640  0.00262621  1
  F  F14  1  0.82938776  0.56695360  0.49737379  1
  F  F15  1  0.67061224  0.43304640  0.99737379  1
  F  F16  1  0.46202275  0.32640467  0.73895719  1
  F  F17  1  0.03797725  0.67359533  0.23895719  1
  F  F18  1  0.53797725  0.82640467  0.26104281  1
  F  F19  1  0.96202275  0.17359533  0.76104281  1
  F  F20  1  0.53797725  0.67359533  0.26104281  1
  F  F21  1  0.96202275  0.32640467  0.76104281  1
  F  F22  1  0.46202275  0.17359533  0.73895719  1
  F  F23  1  0.03797725  0.82640467  0.23895719  1
  Li  Li24  1  0.00000000  0.00000000  0.50000000  1
  Li  Li25  1  0.50000000  0.00000000  0.00000000  1
  Li  Li26  1  0.00000000  0.50000000  0.50000000  1
  Li  Li27  1  0.50000000  0.50000000  0.00000000  1
  Li  Li28  1  0.85779692  0.25000000  0.42265074  1
  Li  Li29  1  0.64220308  0.75000000  0.92265074  1
  Li  Li30  1  0.14220308  0.75000000  0.57734926  1
  Li  Li31  1  0.35779692  0.25000000  0.07734926  1
  Li  Li32  1  0.65469001  0.25000000  0.48777473  1
  Li  Li33  1  0.84530999  0.75000000  0.98777473  1
  Li  Li34  1  0.34530999  0.75000000  0.51222527  1
  Li  Li35  1  0.15469001  0.25000000  0.01222527  1
  Li  Li36  1  0.81851269  0.25000000  0.00312875  1
  Li  Li37  1  0.68148731  0.75000000  0.50312875  1
  Li  Li38  1  0.18148731  0.75000000  0.99687125  1
  Li  Li39  1  0.31851269  0.25000000  0.49687125  1
  Li  Li40  1  0.46196345  0.06241467  0.17208559  1
  Li  Li41  1  0.03803655  -0.06241467  0.67208559  1
  Li  Li42  1  -0.46196345  0.56241467  -0.17208559  1
  Li  Li43  1  0.96196345  0.43758533  0.32791441  1
  Li  Li44  1  -0.46196345  -0.06241467  -0.17208559  1
  Li  Li45  1  0.96196345  0.06241467  0.32791441  1
  Li  Li46  1  0.46196345  0.43758533  0.17208559  1
  Li  Li47  1  0.03803655  0.56241467  0.67208559  1
