# generated using pymatgen
data_Li2YP4Se
_symmetry_space_group_name_H-M   'P 1'
_cell_length_a   5.17807365
_cell_length_b   5.32183822
_cell_length_c   6.96534986
_cell_angle_alpha   93.74241053
_cell_angle_beta   99.13809535
_cell_angle_gamma   106.22461240
_symmetry_Int_Tables_number   1
_chemical_formula_structural   Li2YP4Se
_chemical_formula_sum   'Li2 Y1 P4 Se1'
_cell_volume   180.73866262
_cell_formula_units_Z   1
loop_
 _symmetry_equiv_pos_site_id
 _symmetry_equiv_pos_as_xyz
  1  'x, y, z'
loop_
 _atom_site_type_symbol
 _atom_site_label
 _atom_site_symmetry_multiplicity
 _atom_site_fract_x
 _atom_site_fract_y
 _atom_site_fract_z
 _atom_site_occupancy
  Y  Y0  1  0.00000000  0.00000000  0.00000000  1
  P  P1  1  0.50000000  0.50000000  0.50000000  1
  P  P2  1  0.50000000  0.50000000  0.00000000  1
  P  P3  1  0.50000000  0.00000000  0.50000000  1
  P  P4  1  0.00000000  0.50000000  0.50000000  1
  Se  Se5  1  0.12274756  0.29181575  0.54428863  1
  Li  Li6  1  0.68330603  0.32680199  0.24503254  1
  Li  Li7  1  0.02152423  0.84308447  0.13627099  1
