# generated using pymatgen
data_LiF
_symmetry_space_group_name_H-M   'P 1'
_cell_length_a   7.00996267
_cell_length_b   7.00996267
_cell_length_c   12.21014852
_cell_angle_alpha   90.00000000
_cell_angle_beta   90.00000000
_cell_angle_gamma   90.00000000
_symmetry_Int_Tables_number   1
_chemical_formula_structural   LiF
_chemical_formula_sum   'Li28 F28'
_cell_volume   600.00152983
_cell_formula_units_Z   28
loop_
 _symmetry_equiv_pos_site_id
 _symmetry_equiv_pos_as_xyz
  1  'x, y, z'
loop_
 _atom_site_type_symbol
 _atom_site_label
 _atom_site_symmetry_multiplicity
 _atom_site_fract_x
 _atom_site_fract_y
 _atom_site_fract_z
 _atom_site_occupancy
  F  F0  1  0.12612691  0.59657203  0.30076116  1
  F  F1  1  -0.12612691  -0.59657203  0.30076116  1
  F  F2  1  -0.59657203  0.12612691  0.30076116  1
  F  F3  1  0.59657203  -0.12612691  0.30076116  1
  F  F4  1  -0.12612691  0.59657203  -0.30076116  1
  F  F5  1  0.12612691  -0.59657203  -0.30076116  1
  F  F6  1  0.59657203  0.12612691  -0.30076116  1
  F  F7  1  -0.59657203  -0.12612691  -0.30076116  1
  F  F8  1  -0.12612691  -0.59657203  -0.30076116  1
  F  F9  1  0.12612691  0.59657203  -0.30076116  1
  F  F10  1  0.59657203  -0.12612691  -0.30076116  1
  F  F11  1  -0.59657203  0.12612691  -0.30076116  1
  F  F12  1  0.12612691  -0.59657203  0.30076116  1
  F  F13  1  -0.12612691  0.59657203  0.30076116  1
  F  F14  1  -0.59657203  -0.12612691  0.30076116  1
  F  F15  1  0.59657203  0.12612691  0.30076116  1
  F  F16  1  0.54132028  0.00000000  0.75374819  1
  F  F17  1  0.45867972  0.00000000  0.75374819  1
  F  F18  1  0.00000000  0.54132028  0.75374819  1
  F  F19  1  0.00000000  0.45867972  0.75374819  1
  F  F20  1  0.45867972  0.00000000  0.24625181  1
  F  F21  1  0.54132028  0.00000000  0.24625181  1
  F  F22  1  0.00000000  0.54132028  0.24625181  1
  F  F23  1  0.00000000  0.45867972  0.24625181  1
  F  F24  1  0.34296623  0.34296623  0.00000000  1
  F  F25  1  0.65703377  0.65703377  0.00000000  1
  F  F26  1  0.65703377  0.34296623  0.00000000  1
  F  F27  1  0.34296623  0.65703377  0.00000000  1
  Li  Li28  1  0.75389872  0.00000000  0.50000000  1
  Li  Li29  1  0.24610128  0.00000000  0.50000000  1
  Li  Li30  1  0.00000000  0.75389872  0.50000000  1
  Li  Li31  1  0.00000000  0.24610128  0.50000000  1
  Li  Li32  1  0.00000000  0.50000000  0.50000000  1
  Li  Li33  1  0.50000000  0.00000000  0.50000000  1
  Li  Li34  1  0.26060004  0.00000000  0.00000000  1
  Li  Li35  1  0.73939996  0.00000000  0.00000000  1
  Li  Li36  1  0.00000000  0.26060004  0.00000000  1
  Li  Li37  1  0.00000000  0.73939996  0.00000000  1
  Li  Li38  1  0.50000000  0.50000000  0.39090703  1
  Li  Li39  1  0.50000000  0.50000000  0.60909297  1
  Li  Li40  1  0.00000000  0.00000000  0.36238005  1
  Li  Li41  1  0.00000000  0.00000000  0.63761995  1
  Li  Li42  1  0.67926024  0.00000000  0.27104946  1
  Li  Li43  1  0.32073976  0.00000000  0.27104946  1
  Li  Li44  1  0.00000000  0.67926024  0.27104946  1
  Li  Li45  1  0.00000000  0.32073976  0.27104946  1
  Li  Li46  1  0.32073976  0.00000000  0.72895054  1
  Li  Li47  1  0.67926024  0.00000000  0.72895054  1
  Li  Li48  1  0.00000000  0.67926024  0.72895054  1
  Li  Li49  1  0.00000000  0.32073976  0.72895054  1
  Li  Li50  1  0.00000000  0.50000000  0.11107513  1
  Li  Li51  1  0.50000000  0.00000000  0.11107513  1
  Li  Li52  1  0.00000000  0.50000000  0.88892487  1
  Li  Li53  1  0.50000000  0.00000000  0.88892487  1
  Li  Li54  1  0.50000000  0.50000000  0.50000000  1
  Li  Li55  1  0.00000000  0.00000000  0.50000000  1
