# generated using pymatgen
data_LiF
_symmetry_space_group_name_H-M   'P 1'
_cell_length_a   9.52552929
_cell_length_b   9.52552929
_cell_length_c   12.88550905
_cell_angle_alpha   90.00000000
_cell_angle_beta   90.00000000
_cell_angle_gamma   120.00000000
_symmetry_Int_Tables_number   1
_chemical_formula_structural   LiF
_chemical_formula_sum   'Li54 F54'
_cell_volume   1012.53593508
_cell_formula_units_Z   54
loop_
 _symmetry_equiv_pos_site_id
 _symmetry_equiv_pos_as_xyz
  1  'x, y, z'
loop_
 _atom_site_type_symbol
 _atom_site_label
 _atom_site_symmetry_multiplicity
 _atom_site_fract_x
 _atom_site_fract_y
 _atom_site_fract_z
 _atom_site_occupancy
  F  F0  1  0.12045824  0.41804583  0.57479715  1
  F  F1  1  -0.41804583  -0.29758760  0.57479715  1
  F  F2  1  0.29758760  -0.12045824  0.57479715  1
  F  F3  1  0.41804583  0.12045824  -0.07479715  1
  F  F4  1  -0.29758760  -0.41804583  -0.07479715  1
  F  F5  1  -0.12045824  0.29758760  -0.07479715  1
  F  F6  1  -0.12045824  -0.41804583  -0.57479715  1
  F  F7  1  0.41804583  0.29758760  -0.57479715  1
  F  F8  1  -0.29758760  0.12045824  -0.57479715  1
  F  F9  1  -0.41804583  -0.12045824  1.07479715  1
  F  F10  1  0.29758760  0.41804583  1.07479715  1
  F  F11  1  0.12045824  -0.29758760  1.07479715  1
  F  F12  1  0.78712491  0.75137917  0.90813049  1
  F  F13  1  0.24862083  0.03574574  0.90813049  1
  F  F14  1  0.96425426  0.21287509  0.90813049  1
  F  F15  1  1.08471250  0.45379157  0.25853618  1
  F  F16  1  0.36907907  -0.08471250  0.25853618  1
  F  F17  1  0.54620843  0.63092093  0.25853618  1
  F  F18  1  0.54620843  -0.08471250  -0.24146382  1
  F  F19  1  1.08471250  0.63092093  -0.24146382  1
  F  F20  1  0.36907907  0.45379157  -0.24146382  1
  F  F21  1  0.24862083  0.21287509  1.40813049  1
  F  F22  1  0.96425426  0.75137917  1.40813049  1
  F  F23  1  0.78712491  0.03574574  1.40813049  1
  F  F24  1  0.45379157  1.08471250  1.24146382  1
  F  F25  1  -0.08471250  0.36907907  1.24146382  1
  F  F26  1  0.63092093  0.54620843  1.24146382  1
  F  F27  1  0.75137917  0.78712491  0.59186951  1
  F  F28  1  0.03574574  0.24862083  0.59186951  1
  F  F29  1  0.21287509  0.96425426  0.59186951  1
  F  F30  1  0.21287509  0.24862083  0.09186951  1
  F  F31  1  0.75137917  0.96425426  0.09186951  1
  F  F32  1  0.03574574  0.78712491  0.09186951  1
  F  F33  1  -0.08471250  0.54620843  1.74146382  1
  F  F34  1  0.63092093  1.08471250  1.74146382  1
  F  F35  1  0.45379157  0.36907907  1.74146382  1
  F  F36  1  0.00000000  0.00000000  0.82677106  1
  F  F37  1  0.00000000  0.00000000  0.67322894  1
  F  F38  1  0.00000000  0.00000000  0.17322894  1
  F  F39  1  0.00000000  0.00000000  0.32677106  1
  F  F40  1  0.66666667  0.33333333  0.16010439  1
  F  F41  1  0.66666667  0.33333333  0.00656228  1
  F  F42  1  0.66666667  0.33333333  0.50656228  1
  F  F43  1  0.66666667  0.33333333  0.66010439  1
  F  F44  1  0.33333333  0.66666667  0.49343772  1
  F  F45  1  0.33333333  0.66666667  0.33989561  1
  F  F46  1  0.33333333  0.66666667  0.83989561  1
  F  F47  1  0.33333333  0.66666667  0.99343772  1
  F  F48  1  0.00000000  0.00000000  0.25000000  1
  F  F49  1  0.00000000  0.00000000  0.75000000  1
  F  F50  1  0.66666667  0.33333333  0.58333333  1
  F  F51  1  0.66666667  0.33333333  0.08333333  1
  F  F52  1  0.33333333  0.66666667  0.91666667  1
  F  F53  1  0.33333333  0.66666667  0.41666667  1
  Li  Li54  1  0.50000000  0.00000000  0.00000000  1
  Li  Li55  1  0.00000000  0.50000000  0.00000000  1
  Li  Li56  1  0.50000000  0.50000000  0.00000000  1
  Li  Li57  1  0.00000000  0.50000000  0.50000000  1
  Li  Li58  1  0.50000000  0.00000000  0.50000000  1
  Li  Li59  1  0.50000000  0.50000000  0.50000000  1
  Li  Li60  1  0.16666667  0.33333333  0.33333333  1
  Li  Li61  1  0.66666667  0.83333333  0.33333333  1
  Li  Li62  1  0.16666667  0.83333333  0.33333333  1
  Li  Li63  1  0.66666667  0.83333333  0.83333333  1
  Li  Li64  1  0.16666667  0.33333333  0.83333333  1
  Li  Li65  1  0.16666667  0.83333333  0.83333333  1
  Li  Li66  1  0.83333333  0.66666667  0.66666667  1
  Li  Li67  1  0.33333333  0.16666667  0.66666667  1
  Li  Li68  1  0.83333333  0.16666667  0.66666667  1
  Li  Li69  1  0.33333333  0.16666667  0.16666667  1
  Li  Li70  1  0.83333333  0.66666667  0.16666667  1
  Li  Li71  1  0.83333333  0.16666667  0.16666667  1
  Li  Li72  1  0.13710294  0.00000000  0.25000000  1
  Li  Li73  1  0.00000000  0.13710294  0.25000000  1
  Li  Li74  1  0.86289706  0.86289706  0.25000000  1
  Li  Li75  1  0.86289706  -0.00000000  0.75000000  1
  Li  Li76  1  0.00000000  0.86289706  0.75000000  1
  Li  Li77  1  0.13710294  0.13710294  0.75000000  1
  Li  Li78  1  0.80376960  0.33333333  0.58333333  1
  Li  Li79  1  0.66666667  0.47043627  0.58333333  1
  Li  Li80  1  0.52956373  0.19623040  0.58333333  1
  Li  Li81  1  0.52956373  0.33333333  0.08333333  1
  Li  Li82  1  0.66666667  0.19623040  0.08333333  1
  Li  Li83  1  0.80376960  0.47043627  0.08333333  1
  Li  Li84  1  0.47043627  0.66666667  0.91666667  1
  Li  Li85  1  0.33333333  0.80376960  0.91666667  1
  Li  Li86  1  0.19623040  0.52956373  0.91666667  1
  Li  Li87  1  0.19623040  0.66666667  0.41666667  1
  Li  Li88  1  0.33333333  0.52956373  0.41666667  1
  Li  Li89  1  0.47043627  0.80376960  0.41666667  1
  Li  Li90  1  0.50789652  0.00000000  0.25000000  1
  Li  Li91  1  0.00000000  0.50789652  0.25000000  1
  Li  Li92  1  0.49210348  0.49210348  0.25000000  1
  Li  Li93  1  0.49210348  0.00000000  0.75000000  1
  Li  Li94  1  0.00000000  0.49210348  0.75000000  1
  Li  Li95  1  0.50789652  0.50789652  0.75000000  1
  Li  Li96  1  0.17456319  0.33333333  0.58333333  1
  Li  Li97  1  0.66666667  0.84122985  0.58333333  1
  Li  Li98  1  0.15877015  0.82543681  0.58333333  1
  Li  Li99  1  0.15877015  0.33333333  0.08333333  1
  Li  Li100  1  0.66666667  0.82543681  0.08333333  1
  Li  Li101  1  0.17456319  0.84122985  0.08333333  1
  Li  Li102  1  0.84122985  0.66666667  0.91666667  1
  Li  Li103  1  0.33333333  0.17456319  0.91666667  1
  Li  Li104  1  0.82543681  0.15877015  0.91666667  1
  Li  Li105  1  0.82543681  0.66666667  0.41666667  1
  Li  Li106  1  0.33333333  0.15877015  0.41666667  1
  Li  Li107  1  0.84122985  0.17456319  0.41666667  1
