# generated using pymatgen
data_Li2Si4Te3F12
_symmetry_space_group_name_H-M   'P 1'
_cell_length_a   6.49013427
_cell_length_b   13.12729700
_cell_length_c   17.67325872
_cell_angle_alpha   90.00000000
_cell_angle_beta   90.00000000
_cell_angle_gamma   90.00000000
_symmetry_Int_Tables_number   1
_chemical_formula_structural   Li2Si4Te3F12
_chemical_formula_sum   'Li8 Si16 Te12 F48'
_cell_volume   1505.72488577
_cell_formula_units_Z   4
loop_
 _symmetry_equiv_pos_site_id
 _symmetry_equiv_pos_as_xyz
  1  'x, y, z'
loop_
 _atom_site_type_symbol
 _atom_site_label
 _atom_site_symmetry_multiplicity
 _atom_site_fract_x
 _atom_site_fract_y
 _atom_site_fract_z
 _atom_site_occupancy
  F  F0  1  0.54513056  0.30376287  0.73339148  1
  F  F1  1  0.45486944  0.69623713  0.73339148  1
  F  F2  1  0.95486944  0.80376287  0.26660852  1
  F  F3  1  0.04513056  0.19623713  0.26660852  1
  F  F4  1  0.45486944  0.69623713  0.26660852  1
  F  F5  1  0.54513056  0.30376287  0.26660852  1
  F  F6  1  0.04513056  0.19623713  0.73339148  1
  F  F7  1  0.95486944  0.80376287  0.73339148  1
  F  F8  1  0.00000000  0.00000000  0.00000000  1
  F  F9  1  0.50000000  0.50000000  -0.00000000  1
  F  F10  1  0.31394854  0.98609570  0.00000000  1
  F  F11  1  0.68605146  0.01390430  0.00000000  1
  F  F12  1  0.18605146  0.48609570  -0.00000000  1
  F  F13  1  0.81394854  0.51390430  0.00000000  1
  F  F14  1  0.55321805  0.58102708  0.93116071  1
  F  F15  1  0.44678195  0.41897292  0.93116071  1
  F  F16  1  0.94678195  0.08102708  0.06883929  1
  F  F17  1  0.05321805  0.91897292  0.06883929  1
  F  F18  1  0.44678195  0.41897292  0.06883929  1
  F  F19  1  0.55321805  0.58102708  0.06883929  1
  F  F20  1  0.05321805  0.91897292  0.93116071  1
  F  F21  1  0.94678195  0.08102708  0.93116071  1
  F  F22  1  0.55218211  0.94959726  0.00000000  1
  F  F23  1  0.44781789  0.05040274  0.00000000  1
  F  F24  1  0.94781789  0.44959726  0.00000000  1
  F  F25  1  0.05218211  0.55040274  -0.00000000  1
  F  F26  1  0.55477514  0.56319050  0.67867519  1
  F  F27  1  0.44522486  0.43680950  0.67867519  1
  F  F28  1  0.94522486  0.06319050  0.32132481  1
  F  F29  1  0.05477514  0.93680950  0.32132481  1
  F  F30  1  0.44522486  0.43680950  0.32132481  1
  F  F31  1  0.55477514  0.56319050  0.32132481  1
  F  F32  1  0.05477514  0.93680950  0.67867519  1
  F  F33  1  0.94522486  0.06319050  0.67867519  1
  F  F34  1  0.00000000  0.50000000  0.90122803  1
  F  F35  1  0.50000000  0.00000000  0.09877197  1
  F  F36  1  0.00000000  0.50000000  0.09877197  1
  F  F37  1  0.50000000  0.00000000  0.90122803  1
  F  F38  1  0.00000000  0.50000000  0.00000000  1
  F  F39  1  0.50000000  0.00000000  0.00000000  1
  F  F40  1  0.39047058  0.95370569  0.50000000  1
  F  F41  1  0.60952942  0.04629431  0.50000000  1
  F  F42  1  0.10952942  0.45370569  0.50000000  1
  F  F43  1  0.89047058  0.54629431  0.50000000  1
  F  F44  1  0.00000000  0.00000000  0.37151517  1
  F  F45  1  0.50000000  0.50000000  0.62848483  1
  F  F46  1  0.00000000  0.00000000  0.62848483  1
  F  F47  1  0.50000000  0.50000000  0.37151517  1
  Li  Li48  1  0.26534396  0.66579133  0.14497645  1
  Li  Li49  1  0.73465604  0.33420867  0.14497645  1
  Li  Li50  1  0.23465604  0.16579133  0.85502355  1
  Li  Li51  1  0.76534396  0.83420867  0.85502355  1
  Li  Li52  1  0.73465604  0.33420867  0.85502355  1
  Li  Li53  1  0.26534396  0.66579133  0.85502355  1
  Li  Li54  1  0.76534396  0.83420867  0.14497645  1
  Li  Li55  1  0.23465604  0.16579133  0.14497645  1
  Si  Si56  1  0.94364857  0.34273329  0.71057946  1
  Si  Si57  1  -0.94364857  -0.34273329  0.71057946  1
  Si  Si58  1  -0.44364857  0.84273329  -0.71057946  1
  Si  Si59  1  1.44364857  0.15726671  -0.71057946  1
  Si  Si60  1  -0.94364857  -0.34273329  -0.71057946  1
  Si  Si61  1  0.94364857  0.34273329  -0.71057946  1
  Si  Si62  1  1.44364857  0.15726671  0.71057946  1
  Si  Si63  1  -0.44364857  0.84273329  0.71057946  1
  Si  Si64  1  0.13163353  0.73626377  0.92232578  1
  Si  Si65  1  0.86836647  0.26373623  0.92232578  1
  Si  Si66  1  0.36836647  0.23626377  0.07767422  1
  Si  Si67  1  0.63163353  0.76373623  0.07767422  1
  Si  Si68  1  0.86836647  0.26373623  0.07767422  1
  Si  Si69  1  0.13163353  0.73626377  0.07767422  1
  Si  Si70  1  0.63163353  0.76373623  0.92232578  1
  Si  Si71  1  0.36836647  0.23626377  0.92232578  1
  Te  Te72  1  0.89659584  0.97436083  0.74418460  1
  Te  Te73  1  0.10340416  0.02563917  0.74418460  1
  Te  Te74  1  0.60340416  0.47436083  0.25581540  1
  Te  Te75  1  0.39659584  0.52563917  0.25581540  1
  Te  Te76  1  0.10340416  0.02563917  0.25581540  1
  Te  Te77  1  0.89659584  0.97436083  0.25581540  1
  Te  Te78  1  0.39659584  0.52563917  0.74418460  1
  Te  Te79  1  0.60340416  0.47436083  0.74418460  1
  Te  Te80  1  0.00000000  0.00000000  0.12398401  1
  Te  Te81  1  0.50000000  0.50000000  0.87601599  1
  Te  Te82  1  0.00000000  0.00000000  0.87601599  1
  Te  Te83  1  0.50000000  0.50000000  0.12398401  1
