# generated using pymatgen
data_LiF
_symmetry_space_group_name_H-M   'P 1'
_cell_length_a   10.20752414
_cell_length_b   10.20752414
_cell_length_c   14.01575864
_cell_angle_alpha   90.00000000
_cell_angle_beta   90.00000000
_cell_angle_gamma   90.00000000
_symmetry_Int_Tables_number   1
_chemical_formula_structural   LiF
_chemical_formula_sum   'Li56 F56'
_cell_volume   1460.35163590
_cell_formula_units_Z   56
loop_
 _symmetry_equiv_pos_site_id
 _symmetry_equiv_pos_as_xyz
  1  'x, y, z'
loop_
 _atom_site_type_symbol
 _atom_site_label
 _atom_site_symmetry_multiplicity
 _atom_site_fract_x
 _atom_site_fract_y
 _atom_site_fract_z
 _atom_site_occupancy
  F  F0  1  0.23307325  0.16056258  0.14928226  1
  F  F1  1  0.76692675  0.83943742  0.14928226  1
  F  F2  1  0.83943742  0.23307325  0.14928226  1
  F  F3  1  0.16056258  0.76692675  0.14928226  1
  F  F4  1  0.76692675  0.16056258  0.85071774  1
  F  F5  1  0.23307325  0.83943742  0.85071774  1
  F  F6  1  0.16056258  0.23307325  0.85071774  1
  F  F7  1  0.83943742  0.76692675  0.85071774  1
  F  F8  1  0.76692675  0.83943742  0.85071774  1
  F  F9  1  0.23307325  0.16056258  0.85071774  1
  F  F10  1  0.16056258  0.76692675  0.85071774  1
  F  F11  1  0.83943742  0.23307325  0.85071774  1
  F  F12  1  0.23307325  0.83943742  0.14928226  1
  F  F13  1  0.76692675  0.16056258  0.14928226  1
  F  F14  1  0.83943742  0.76692675  0.14928226  1
  F  F15  1  0.16056258  0.23307325  0.14928226  1
  F  F16  1  0.11607605  0.36608786  0.91521855  1
  F  F17  1  0.88392395  0.63391214  0.91521855  1
  F  F18  1  0.63391214  0.11607605  0.91521855  1
  F  F19  1  0.36608786  0.88392395  0.91521855  1
  F  F20  1  0.88392395  0.36608786  0.08478145  1
  F  F21  1  0.11607605  0.63391214  0.08478145  1
  F  F22  1  0.36608786  0.11607605  0.08478145  1
  F  F23  1  0.63391214  0.88392395  0.08478145  1
  F  F24  1  0.88392395  0.63391214  0.08478145  1
  F  F25  1  0.11607605  0.36608786  0.08478145  1
  F  F26  1  0.36608786  0.88392395  0.08478145  1
  F  F27  1  0.63391214  0.11607605  0.08478145  1
  F  F28  1  0.11607605  0.63391214  0.91521855  1
  F  F29  1  0.88392395  0.36608786  0.91521855  1
  F  F30  1  0.63391214  0.88392395  0.91521855  1
  F  F31  1  0.36608786  0.11607605  0.91521855  1
  F  F32  1  0.54441649  0.50000000  0.02675998  1
  F  F33  1  0.45558351  0.50000000  0.02675998  1
  F  F34  1  0.50000000  0.54441649  0.02675998  1
  F  F35  1  0.50000000  0.45558351  0.02675998  1
  F  F36  1  0.45558351  0.50000000  0.97324002  1
  F  F37  1  0.54441649  0.50000000  0.97324002  1
  F  F38  1  0.50000000  0.54441649  0.97324002  1
  F  F39  1  0.50000000  0.45558351  0.97324002  1
  F  F40  1  0.73882663  0.50000000  0.09034075  1
  F  F41  1  0.26117337  0.50000000  0.09034075  1
  F  F42  1  0.50000000  0.73882663  0.09034075  1
  F  F43  1  0.50000000  0.26117337  0.09034075  1
  F  F44  1  0.26117337  0.50000000  0.90965925  1
  F  F45  1  0.73882663  0.50000000  0.90965925  1
  F  F46  1  0.50000000  0.73882663  0.90965925  1
  F  F47  1  0.50000000  0.26117337  0.90965925  1
  F  F48  1  0.58426884  0.18248249  0.00000000  1
  F  F49  1  0.41573116  0.81751751  0.00000000  1
  F  F50  1  0.81751751  0.58426884  0.00000000  1
  F  F51  1  0.18248249  0.41573116  0.00000000  1
  F  F52  1  0.41573116  0.18248249  0.00000000  1
  F  F53  1  0.58426884  0.81751751  0.00000000  1
  F  F54  1  0.18248249  0.58426884  0.00000000  1
  F  F55  1  0.81751751  0.41573116  -0.00000000  1
  Li  Li56  1  0.32542935  0.80209485  0.27837408  1
  Li  Li57  1  -0.32542935  -0.80209485  0.27837408  1
  Li  Li58  1  -0.80209485  0.32542935  0.27837408  1
  Li  Li59  1  0.80209485  -0.32542935  0.27837408  1
  Li  Li60  1  -0.32542935  0.80209485  -0.27837408  1
  Li  Li61  1  0.32542935  -0.80209485  -0.27837408  1
  Li  Li62  1  0.80209485  0.32542935  -0.27837408  1
  Li  Li63  1  -0.80209485  -0.32542935  -0.27837408  1
  Li  Li64  1  -0.32542935  -0.80209485  -0.27837408  1
  Li  Li65  1  0.32542935  0.80209485  -0.27837408  1
  Li  Li66  1  0.80209485  -0.32542935  -0.27837408  1
  Li  Li67  1  -0.80209485  0.32542935  -0.27837408  1
  Li  Li68  1  0.32542935  -0.80209485  0.27837408  1
  Li  Li69  1  -0.32542935  0.80209485  0.27837408  1
  Li  Li70  1  -0.80209485  -0.32542935  0.27837408  1
  Li  Li71  1  0.80209485  0.32542935  0.27837408  1
  Li  Li72  1  0.00000000  0.50000000  0.50000000  1
  Li  Li73  1  0.50000000  0.00000000  0.50000000  1
  Li  Li74  1  0.66207150  -0.00000000  0.19735199  1
  Li  Li75  1  0.33792850  0.00000000  0.19735199  1
  Li  Li76  1  0.00000000  0.66207150  0.19735199  1
  Li  Li77  1  0.00000000  0.33792850  0.19735199  1
  Li  Li78  1  0.33792850  0.00000000  0.80264801  1
  Li  Li79  1  0.66207150  -0.00000000  0.80264801  1
  Li  Li80  1  0.00000000  0.66207150  0.80264801  1
  Li  Li81  1  0.00000000  0.33792850  0.80264801  1
  Li  Li82  1  0.91798685  0.65344844  0.50000000  1
  Li  Li83  1  0.08201315  0.34655156  0.50000000  1
  Li  Li84  1  0.34655156  0.91798685  0.50000000  1
  Li  Li85  1  0.65344844  0.08201315  0.50000000  1
  Li  Li86  1  0.08201315  0.65344844  0.50000000  1
  Li  Li87  1  0.91798685  0.34655156  0.50000000  1
  Li  Li88  1  0.65344844  0.91798685  0.50000000  1
  Li  Li89  1  0.34655156  0.08201315  0.50000000  1
  Li  Li90  1  0.00000000  0.50000000  0.32194112  1
  Li  Li91  1  0.50000000  0.00000000  0.32194112  1
  Li  Li92  1  0.00000000  0.50000000  0.67805888  1
  Li  Li93  1  0.50000000  0.00000000  0.67805888  1
  Li  Li94  1  0.57383235  0.13280826  0.59192246  1
  Li  Li95  1  0.42616765  0.86719174  0.59192246  1
  Li  Li96  1  0.86719174  0.57383235  0.59192246  1
  Li  Li97  1  0.13280826  0.42616765  0.59192246  1
  Li  Li98  1  0.42616765  0.13280826  0.40807754  1
  Li  Li99  1  0.57383235  0.86719174  0.40807754  1
  Li  Li100  1  0.13280826  0.57383235  0.40807754  1
  Li  Li101  1  0.86719174  0.42616765  0.40807754  1
  Li  Li102  1  0.42616765  0.86719174  0.40807754  1
  Li  Li103  1  0.57383235  0.13280826  0.40807754  1
  Li  Li104  1  0.13280826  0.42616765  0.40807754  1
  Li  Li105  1  0.86719174  0.57383235  0.40807754  1
  Li  Li106  1  0.57383235  0.86719174  0.59192246  1
  Li  Li107  1  0.42616765  0.13280826  0.59192246  1
  Li  Li108  1  0.86719174  0.42616765  0.59192246  1
  Li  Li109  1  0.13280826  0.57383235  0.59192246  1
  Li  Li110  1  0.00000000  0.00000000  0.50000000  1
  Li  Li111  1  0.00000000  0.00000000  0.00000000  1
