# generated using pymatgen
data_LiF
_symmetry_space_group_name_H-M   'P 1'
_cell_length_a   4.89173696
_cell_length_b   4.89173696
_cell_length_c   38.55825518
_cell_angle_alpha   90.00000000
_cell_angle_beta   90.00000000
_cell_angle_gamma   120.00000000
_symmetry_Int_Tables_number   1
_chemical_formula_structural   LiF
_chemical_formula_sum   'Li24 F24'
_cell_volume   799.05044197
_cell_formula_units_Z   24
loop_
 _symmetry_equiv_pos_site_id
 _symmetry_equiv_pos_as_xyz
  1  'x, y, z'
loop_
 _atom_site_type_symbol
 _atom_site_label
 _atom_site_symmetry_multiplicity
 _atom_site_fract_x
 _atom_site_fract_y
 _atom_site_fract_z
 _atom_site_occupancy
  F  F0  1  0.33333333  0.66666667  0.25000000  1
  F  F1  1  0.66666667  0.33333333  0.75000000  1
  F  F2  1  0.50000000  0.00000000  -0.00000000  1
  F  F3  1  0.00000000  0.50000000  0.00000000  1
  F  F4  1  0.50000000  0.50000000  0.00000000  1
  F  F5  1  0.50000000  0.00000000  0.50000000  1
  F  F6  1  0.00000000  0.50000000  0.50000000  1
  F  F7  1  0.50000000  0.50000000  0.50000000  1
  F  F8  1  0.57653362  0.00027231  0.27290216  1
  F  F9  1  -0.00027231  0.57626130  0.27290216  1
  F  F10  1  -0.57626130  -0.57653362  0.27290216  1
  F  F11  1  -0.57653362  -0.00027231  0.77290216  1
  F  F12  1  0.00027231  -0.57626130  0.77290216  1
  F  F13  1  0.57626130  0.57653362  0.77290216  1
  F  F14  1  -0.57653362  -0.00027231  -0.27290216  1
  F  F15  1  0.00027231  -0.57626130  -0.27290216  1
  F  F16  1  0.57626130  0.57653362  -0.27290216  1
  F  F17  1  0.57653362  0.00027231  0.22709784  1
  F  F18  1  -0.00027231  0.57626130  0.22709784  1
  F  F19  1  -0.57626130  -0.57653362  0.22709784  1
  F  F20  1  0.33333333  0.66666667  0.54334544  1
  F  F21  1  0.66666667  0.33333333  0.04334544  1
  F  F22  1  0.66666667  0.33333333  0.45665456  1
  F  F23  1  0.33333333  0.66666667  0.95665456  1
  Li  Li24  1  0.16594079  0.85391382  0.99201628  1
  Li  Li25  1  0.14608618  0.31202697  0.99201628  1
  Li  Li26  1  0.68797303  0.83405921  0.99201628  1
  Li  Li27  1  0.83405921  0.14608618  0.49201628  1
  Li  Li28  1  0.85391382  0.68797303  0.49201628  1
  Li  Li29  1  0.31202697  0.16594079  0.49201628  1
  Li  Li30  1  0.83405921  0.14608618  0.00798372  1
  Li  Li31  1  0.85391382  0.68797303  0.00798372  1
  Li  Li32  1  0.31202697  0.16594079  0.00798372  1
  Li  Li33  1  0.16594079  0.85391382  0.50798372  1
  Li  Li34  1  0.14608618  0.31202697  0.50798372  1
  Li  Li35  1  0.68797303  0.83405921  0.50798372  1
  Li  Li36  1  0.66666667  0.33333333  0.25000000  1
  Li  Li37  1  0.33333333  0.66666667  0.75000000  1
  Li  Li38  1  0.00000000  0.00000000  0.65532677  1
  Li  Li39  1  0.00000000  0.00000000  0.15532677  1
  Li  Li40  1  0.00000000  0.00000000  0.34467323  1
  Li  Li41  1  0.00000000  0.00000000  0.84467323  1
  Li  Li42  1  0.00000000  0.00000000  0.00000000  1
  Li  Li43  1  0.00000000  0.00000000  0.50000000  1
  Li  Li44  1  0.33333333  0.66666667  0.21869570  1
  Li  Li45  1  0.66666667  0.33333333  0.71869570  1
  Li  Li46  1  0.66666667  0.33333333  0.78130430  1
  Li  Li47  1  0.33333333  0.66666667  0.28130430  1
