# generated using pymatgen
data_Li3YAs2P3Se2
_symmetry_space_group_name_H-M   'P 1'
_cell_length_a   5.45209849
_cell_length_b   5.69143671
_cell_length_c   7.32056976
_cell_angle_alpha   94.23032237
_cell_angle_beta   99.03701971
_cell_angle_gamma   106.13746991
_symmetry_Int_Tables_number   1
_chemical_formula_structural   Li3YAs2P3Se2
_chemical_formula_sum   'Li3 Y1 As2 P3 Se2'
_cell_volume   213.84288759
_cell_formula_units_Z   1
loop_
 _symmetry_equiv_pos_site_id
 _symmetry_equiv_pos_as_xyz
  1  'x, y, z'
loop_
 _atom_site_type_symbol
 _atom_site_label
 _atom_site_symmetry_multiplicity
 _atom_site_fract_x
 _atom_site_fract_y
 _atom_site_fract_z
 _atom_site_occupancy
  Se  Se0  1  0.00000000  0.00000000  0.00000000  1
  Se  Se1  1  0.50000000  0.50000000  0.50000000  1
  Y  Y2  1  0.50000000  0.50000000  0.00000000  1
  P  P3  1  0.50000000  0.00000000  0.50000000  1
  P  P4  1  0.00000000  0.50000000  0.50000000  1
  P  P5  1  0.64679329  0.01761777  0.88092173  1
  As  As6  1  0.34066280  0.01839953  0.98074488  1
  As  As7  1  0.20645900  0.01585959  0.97157249  1
  Li  Li8  1  0.99550548  0.23550972  0.98838192  1
  Li  Li9  1  0.67619243  0.58838121  0.20343093  1
  Li  Li10  1  0.42042743  0.54182661  0.77284746  1
