# generated using pymatgen
data_Li2Si4Te3F12
_symmetry_space_group_name_H-M   'P 1'
_cell_length_a   10.81633271
_cell_length_b   10.81633271
_cell_length_c   12.73860106
_cell_angle_alpha   90.00000000
_cell_angle_beta   90.00000000
_cell_angle_gamma   90.00000000
_symmetry_Int_Tables_number   1
_chemical_formula_structural   Li2Si4Te3F12
_chemical_formula_sum   'Li8 Si16 Te12 F48'
_cell_volume   1490.32783200
_cell_formula_units_Z   4
loop_
 _symmetry_equiv_pos_site_id
 _symmetry_equiv_pos_as_xyz
  1  'x, y, z'
loop_
 _atom_site_type_symbol
 _atom_site_label
 _atom_site_symmetry_multiplicity
 _atom_site_fract_x
 _atom_site_fract_y
 _atom_site_fract_z
 _atom_site_occupancy
  F  F0  1  0.16818674  0.33127098  0.18149217  1
  F  F1  1  0.33181326  -0.33127098  0.68149217  1
  F  F2  1  -0.08127098  0.91818674  0.43149217  1
  F  F3  1  0.58127098  0.08181326  0.93149217  1
  F  F4  1  0.33181326  0.33127098  0.31850783  1
  F  F5  1  0.16818674  -0.33127098  -0.18149217  1
  F  F6  1  0.58127098  0.91818674  0.06850783  1
  F  F7  1  -0.08127098  0.08181326  0.56850783  1
  F  F8  1  -0.16818674  -0.33127098  -0.18149217  1
  F  F9  1  0.66818674  0.33127098  0.31850783  1
  F  F10  1  1.08127098  0.08181326  0.56850783  1
  F  F11  1  0.41872902  0.91818674  0.06850783  1
  F  F12  1  0.66818674  -0.33127098  0.68149217  1
  F  F13  1  -0.16818674  0.33127098  0.18149217  1
  F  F14  1  0.41872902  0.08181326  0.93149217  1
  F  F15  1  1.08127098  0.91818674  0.43149217  1
  F  F16  1  0.66818674  0.83127098  0.68149217  1
  F  F17  1  0.83181326  0.16872902  1.18149217  1
  F  F18  1  0.41872902  1.41818674  0.93149217  1
  F  F19  1  1.08127098  0.58181326  1.43149217  1
  F  F20  1  0.83181326  0.83127098  0.81850783  1
  F  F21  1  0.66818674  0.16872902  0.31850783  1
  F  F22  1  1.08127098  1.41818674  0.56850783  1
  F  F23  1  0.41872902  0.58181326  1.06850783  1
  F  F24  1  0.33181326  0.16872902  0.31850783  1
  F  F25  1  1.16818674  0.83127098  0.81850783  1
  F  F26  1  1.58127098  0.58181326  1.06850783  1
  F  F27  1  0.91872902  1.41818674  0.56850783  1
  F  F28  1  1.16818674  0.16872902  1.18149217  1
  F  F29  1  0.33181326  0.83127098  0.68149217  1
  F  F30  1  0.91872902  0.58181326  1.43149217  1
  F  F31  1  1.58127098  1.41818674  0.93149217  1
  F  F32  1  0.82377617  0.00000000  0.00000000  1
  F  F33  1  0.67622383  0.00000000  0.50000000  1
  F  F34  1  0.25000000  0.57377617  0.25000000  1
  F  F35  1  0.25000000  0.42622383  0.75000000  1
  F  F36  1  0.17622383  0.00000000  0.00000000  1
  F  F37  1  0.32377617  0.00000000  0.50000000  1
  F  F38  1  0.75000000  0.42622383  0.75000000  1
  F  F39  1  0.75000000  0.57377617  0.25000000  1
  F  F40  1  0.32377617  0.50000000  0.50000000  1
  F  F41  1  0.17622383  0.50000000  0.00000000  1
  F  F42  1  0.75000000  0.07377617  0.75000000  1
  F  F43  1  0.75000000  0.92622383  0.25000000  1
  F  F44  1  0.67622383  0.50000000  0.50000000  1
  F  F45  1  0.82377617  0.50000000  0.00000000  1
  F  F46  1  0.25000000  0.92622383  0.25000000  1
  F  F47  1  0.25000000  0.07377617  0.75000000  1
  Li  Li48  1  0.00000000  0.00000000  0.00000000  1
  Li  Li49  1  0.50000000  0.00000000  0.50000000  1
  Li  Li50  1  0.25000000  0.75000000  0.25000000  1
  Li  Li51  1  0.25000000  0.25000000  0.75000000  1
  Li  Li52  1  0.50000000  0.50000000  0.50000000  1
  Li  Li53  1  0.00000000  0.50000000  0.00000000  1
  Li  Li54  1  0.75000000  0.25000000  0.75000000  1
  Li  Li55  1  0.75000000  0.75000000  0.25000000  1
  Si  Si56  1  0.32277642  0.57277642  0.87500000  1
  Si  Si57  1  0.17722358  0.42722358  0.37500000  1
  Si  Si58  1  0.67722358  0.07277642  0.12500000  1
  Si  Si59  1  0.82277642  0.92722358  0.62500000  1
  Si  Si60  1  0.67722358  0.42722358  0.12500000  1
  Si  Si61  1  0.82277642  0.57277642  0.62500000  1
  Si  Si62  1  0.32277642  0.92722358  0.87500000  1
  Si  Si63  1  0.17722358  0.07277642  0.37500000  1
  Si  Si64  1  0.82277642  0.07277642  0.37500000  1
  Si  Si65  1  0.67722358  0.92722358  0.87500000  1
  Si  Si66  1  0.17722358  0.57277642  0.62500000  1
  Si  Si67  1  0.32277642  0.42722358  0.12500000  1
  Si  Si68  1  0.17722358  0.92722358  0.62500000  1
  Si  Si69  1  0.32277642  0.07277642  0.12500000  1
  Si  Si70  1  0.82277642  0.42722358  0.37500000  1
  Si  Si71  1  0.67722358  0.57277642  0.87500000  1
  Te  Te72  1  0.00000000  0.25000000  0.75004027  1
  Te  Te73  1  0.00000000  0.75000000  0.00004027  1
  Te  Te74  1  0.50000000  0.25000000  0.74995973  1
  Te  Te75  1  0.50000000  0.75000000  0.49995973  1
  Te  Te76  1  0.50000000  0.75000000  0.25004027  1
  Te  Te77  1  0.50000000  0.25000000  0.50004027  1
  Te  Te78  1  0.00000000  0.75000000  0.24995973  1
  Te  Te79  1  0.00000000  0.25000000  0.99995973  1
  Te  Te80  1  0.00000000  0.75000000  0.12500000  1
  Te  Te81  1  0.50000000  0.75000000  0.37500000  1
  Te  Te82  1  0.50000000  0.25000000  0.62500000  1
  Te  Te83  1  0.00000000  0.25000000  0.87500000  1
