# generated using pymatgen
data_Li2Si4Te3F12
_symmetry_space_group_name_H-M   'P 1'
_cell_length_a   8.34543537
_cell_length_b   8.34543537
_cell_length_c   16.18395463
_cell_angle_alpha   90.00000000
_cell_angle_beta   90.00000000
_cell_angle_gamma   90.00000000
_symmetry_Int_Tables_number   1
_chemical_formula_structural   Li2Si4Te3F12
_chemical_formula_sum   'Li8 Si16 Te12 F48'
_cell_volume   1127.15242322
_cell_formula_units_Z   4
loop_
 _symmetry_equiv_pos_site_id
 _symmetry_equiv_pos_as_xyz
  1  'x, y, z'
loop_
 _atom_site_type_symbol
 _atom_site_label
 _atom_site_symmetry_multiplicity
 _atom_site_fract_x
 _atom_site_fract_y
 _atom_site_fract_z
 _atom_site_occupancy
  F  F0  1  0.00000000  0.25000000  0.40703465  1
  F  F1  1  0.00000000  0.75000000  0.65703465  1
  F  F2  1  0.50000000  0.25000000  0.09296535  1
  F  F3  1  0.50000000  0.75000000  0.84296535  1
  F  F4  1  0.50000000  0.75000000  0.90703465  1
  F  F5  1  0.50000000  0.25000000  0.15703465  1
  F  F6  1  0.00000000  0.75000000  0.59296535  1
  F  F7  1  0.00000000  0.25000000  0.34296535  1
  F  F8  1  0.26677998  0.90381876  0.73021169  1
  F  F9  1  0.23322002  -0.90381876  1.23021169  1
  F  F10  1  -0.65381876  1.01677998  0.98021169  1
  F  F11  1  1.15381876  -0.01677998  1.48021169  1
  F  F12  1  0.23322002  0.90381876  -0.23021169  1
  F  F13  1  0.26677998  -0.90381876  -0.73021169  1
  F  F14  1  1.15381876  1.01677998  -0.48021169  1
  F  F15  1  -0.65381876  -0.01677998  0.01978831  1
  F  F16  1  -0.26677998  -0.90381876  -0.73021169  1
  F  F17  1  0.76677998  0.90381876  -0.23021169  1
  F  F18  1  1.65381876  -0.01677998  0.01978831  1
  F  F19  1  -0.15381876  1.01677998  -0.48021169  1
  F  F20  1  0.76677998  -0.90381876  1.23021169  1
  F  F21  1  -0.26677998  0.90381876  0.73021169  1
  F  F22  1  -0.15381876  -0.01677998  1.48021169  1
  F  F23  1  1.65381876  1.01677998  0.98021169  1
  F  F24  1  0.76677998  1.40381876  1.23021169  1
  F  F25  1  0.73322002  -0.40381876  1.73021169  1
  F  F26  1  -0.15381876  1.51677998  1.48021169  1
  F  F27  1  1.65381876  0.48322002  1.98021169  1
  F  F28  1  0.73322002  1.40381876  0.26978831  1
  F  F29  1  0.76677998  -0.40381876  -0.23021169  1
  F  F30  1  1.65381876  1.51677998  0.01978831  1
  F  F31  1  -0.15381876  0.48322002  0.51978831  1
  F  F32  1  0.23322002  -0.40381876  -0.23021169  1
  F  F33  1  1.26677998  1.40381876  0.26978831  1
  F  F34  1  2.15381876  0.48322002  0.51978831  1
  F  F35  1  0.34618124  1.51677998  0.01978831  1
  F  F36  1  1.26677998  -0.40381876  1.73021169  1
  F  F37  1  0.23322002  1.40381876  1.23021169  1
  F  F38  1  0.34618124  0.48322002  1.98021169  1
  F  F39  1  2.15381876  1.51677998  1.48021169  1
  F  F40  1  0.00000000  0.25000000  0.64996673  1
  F  F41  1  0.00000000  0.75000000  0.89996673  1
  F  F42  1  0.50000000  0.25000000  0.85003327  1
  F  F43  1  0.50000000  0.75000000  0.60003327  1
  F  F44  1  0.50000000  0.75000000  0.14996673  1
  F  F45  1  0.50000000  0.25000000  0.39996673  1
  F  F46  1  0.00000000  0.75000000  0.35003327  1
  F  F47  1  0.00000000  0.25000000  0.10003327  1
  Li  Li48  1  0.00000000  0.00000000  0.50000000  1
  Li  Li49  1  0.50000000  0.00000000  -0.00000000  1
  Li  Li50  1  0.25000000  0.75000000  0.75000000  1
  Li  Li51  1  0.25000000  0.25000000  0.25000000  1
  Li  Li52  1  0.50000000  0.50000000  -0.00000000  1
  Li  Li53  1  0.00000000  0.50000000  0.50000000  1
  Li  Li54  1  0.75000000  0.25000000  0.25000000  1
  Li  Li55  1  0.75000000  0.75000000  0.75000000  1
  Si  Si56  1  0.85057505  0.00000000  -0.00000000  1
  Si  Si57  1  0.64942495  -0.00000000  0.50000000  1
  Si  Si58  1  0.25000000  0.60057505  0.25000000  1
  Si  Si59  1  0.25000000  0.39942495  0.75000000  1
  Si  Si60  1  0.14942495  -0.00000000  -0.00000000  1
  Si  Si61  1  0.35057505  0.00000000  0.50000000  1
  Si  Si62  1  0.75000000  0.39942495  0.75000000  1
  Si  Si63  1  0.75000000  0.60057505  0.25000000  1
  Si  Si64  1  0.35057505  0.50000000  0.50000000  1
  Si  Si65  1  0.14942495  0.50000000  -0.00000000  1
  Si  Si66  1  0.75000000  0.10057505  0.75000000  1
  Si  Si67  1  0.75000000  0.89942495  0.25000000  1
  Si  Si68  1  0.64942495  0.50000000  0.50000000  1
  Si  Si69  1  0.85057505  0.50000000  -0.00000000  1
  Si  Si70  1  0.25000000  0.89942495  0.25000000  1
  Si  Si71  1  0.25000000  0.10057505  0.75000000  1
  Te  Te72  1  0.00000000  0.00000000  0.00000000  1
  Te  Te73  1  0.50000000  0.00000000  0.50000000  1
  Te  Te74  1  0.25000000  0.75000000  0.25000000  1
  Te  Te75  1  0.25000000  0.25000000  0.75000000  1
  Te  Te76  1  0.50000000  0.50000000  0.50000000  1
  Te  Te77  1  0.00000000  0.50000000  -0.00000000  1
  Te  Te78  1  0.75000000  0.25000000  0.75000000  1
  Te  Te79  1  0.75000000  0.75000000  0.25000000  1
  Te  Te80  1  0.00000000  0.75000000  0.12500000  1
  Te  Te81  1  0.50000000  0.75000000  0.37500000  1
  Te  Te82  1  0.50000000  0.25000000  0.62500000  1
  Te  Te83  1  0.00000000  0.25000000  0.87500000  1
