# generated using pymatgen
data_Li4TeF2
_symmetry_space_group_name_H-M   'P 1'
_cell_length_a   15.06191144
_cell_length_b   15.06191144
_cell_length_c   15.06191144
_cell_angle_alpha   90.00000000
_cell_angle_beta   90.00000000
_cell_angle_gamma   90.00000000
_symmetry_Int_Tables_number   1
_chemical_formula_structural   Li4TeF2
_chemical_formula_sum   'Li96 Te24 F48'
_cell_volume   3416.96294515
_cell_formula_units_Z   24
loop_
 _symmetry_equiv_pos_site_id
 _symmetry_equiv_pos_as_xyz
  1  'x, y, z'
loop_
 _atom_site_type_symbol
 _atom_site_label
 _atom_site_symmetry_multiplicity
 _atom_site_fract_x
 _atom_site_fract_y
 _atom_site_fract_z
 _atom_site_occupancy
  F  F0  1  0.12500000  0.59372419  0.65627581  1
  F  F1  1  0.37500000  0.40627581  0.15627581  1
  F  F2  1  0.87500000  0.09372419  0.84372419  1
  F  F3  1  0.62500000  0.90627581  0.34372419  1
  F  F4  1  0.65627581  0.12500000  0.59372419  1
  F  F5  1  0.15627581  0.37500000  0.40627581  1
  F  F6  1  0.84372419  0.87500000  0.09372419  1
  F  F7  1  0.34372419  0.62500000  0.90627581  1
  F  F8  1  0.59372419  0.65627581  0.12500000  1
  F  F9  1  0.40627581  0.15627581  0.37500000  1
  F  F10  1  0.09372419  0.84372419  0.87500000  1
  F  F11  1  0.90627581  0.34372419  0.62500000  1
  F  F12  1  0.62500000  0.09372419  0.15627581  1
  F  F13  1  0.87500000  0.90627581  0.65627581  1
  F  F14  1  0.37500000  0.59372419  0.34372419  1
  F  F15  1  0.12500000  0.40627581  0.84372419  1
  F  F16  1  0.15627581  0.62500000  0.09372419  1
  F  F17  1  0.65627581  0.87500000  0.90627581  1
  F  F18  1  0.34372419  0.37500000  0.59372419  1
  F  F19  1  0.84372419  0.12500000  0.40627581  1
  F  F20  1  0.09372419  0.15627581  0.62500000  1
  F  F21  1  0.90627581  0.65627581  0.87500000  1
  F  F22  1  0.59372419  0.34372419  0.37500000  1
  F  F23  1  0.40627581  0.84372419  0.12500000  1
  F  F24  1  0.29197805  0.29197805  0.29197805  1
  F  F25  1  0.20802195  0.70802195  0.79197805  1
  F  F26  1  0.70802195  0.79197805  0.20802195  1
  F  F27  1  0.79197805  0.20802195  0.70802195  1
  F  F28  1  0.04197805  0.54197805  0.95802195  1
  F  F29  1  0.45802195  0.45802195  0.45802195  1
  F  F30  1  0.54197805  0.95802195  0.04197805  1
  F  F31  1  0.95802195  0.04197805  0.54197805  1
  F  F32  1  0.79197805  0.79197805  0.79197805  1
  F  F33  1  0.70802195  0.20802195  0.29197805  1
  F  F34  1  0.20802195  0.29197805  0.70802195  1
  F  F35  1  0.29197805  0.70802195  0.20802195  1
  F  F36  1  0.54197805  0.04197805  0.45802195  1
  F  F37  1  0.95802195  0.95802195  0.95802195  1
  F  F38  1  0.04197805  0.45802195  0.54197805  1
  F  F39  1  0.45802195  0.54197805  0.04197805  1
  F  F40  1  0.87500000  0.87500000  0.87500000  1
  F  F41  1  0.62500000  0.12500000  0.37500000  1
  F  F42  1  0.12500000  0.37500000  0.62500000  1
  F  F43  1  0.37500000  0.62500000  0.12500000  1
  F  F44  1  0.37500000  0.37500000  0.37500000  1
  F  F45  1  0.12500000  0.62500000  0.87500000  1
  F  F46  1  0.62500000  0.87500000  0.12500000  1
  F  F47  1  0.87500000  0.12500000  0.62500000  1
  Li  Li48  1  0.19198649  0.77809128  0.22672760  1
  Li  Li49  1  0.30801351  -0.77809128  0.72672760  1
  Li  Li50  1  -0.19198649  1.27809128  0.27327240  1
  Li  Li51  1  0.69198649  -0.27809128  -0.22672760  1
  Li  Li52  1  0.22672760  0.19198649  0.77809128  1
  Li  Li53  1  0.72672760  0.30801351  -0.77809128  1
  Li  Li54  1  0.27327240  -0.19198649  1.27809128  1
  Li  Li55  1  -0.22672760  0.69198649  -0.27809128  1
  Li  Li56  1  0.77809128  0.22672760  0.19198649  1
  Li  Li57  1  -0.77809128  0.72672760  0.30801351  1
  Li  Li58  1  1.27809128  0.27327240  -0.19198649  1
  Li  Li59  1  -0.27809128  -0.22672760  0.69198649  1
  Li  Li60  1  1.52809128  0.44198649  0.02327240  1
  Li  Li61  1  -0.02809128  0.55801351  0.52327240  1
  Li  Li62  1  1.02809128  0.05801351  0.97672760  1
  Li  Li63  1  -0.52809128  0.94198649  0.47672760  1
  Li  Li64  1  0.94198649  0.47672760  -0.52809128  1
  Li  Li65  1  0.05801351  0.97672760  1.02809128  1
  Li  Li66  1  0.55801351  0.52327240  -0.02809128  1
  Li  Li67  1  0.44198649  0.02327240  1.52809128  1
  Li  Li68  1  0.97672760  1.02809128  0.05801351  1
  Li  Li69  1  0.47672760  -0.52809128  0.94198649  1
  Li  Li70  1  0.02327240  1.52809128  0.44198649  1
  Li  Li71  1  0.52327240  -0.02809128  0.55801351  1
  Li  Li72  1  0.69198649  1.27809128  0.72672760  1
  Li  Li73  1  0.80801351  -0.27809128  1.22672760  1
  Li  Li74  1  0.30801351  1.77809128  0.77327240  1
  Li  Li75  1  1.19198649  0.22190872  0.27327240  1
  Li  Li76  1  0.72672760  0.69198649  1.27809128  1
  Li  Li77  1  1.22672760  0.80801351  -0.27809128  1
  Li  Li78  1  0.77327240  0.30801351  1.77809128  1
  Li  Li79  1  0.27327240  1.19198649  0.22190872  1
  Li  Li80  1  1.27809128  0.72672760  0.69198649  1
  Li  Li81  1  -0.27809128  1.22672760  0.80801351  1
  Li  Li82  1  1.77809128  0.77327240  0.30801351  1
  Li  Li83  1  0.22190872  0.27327240  1.19198649  1
  Li  Li84  1  2.02809128  0.94198649  0.52327240  1
  Li  Li85  1  0.47190872  1.05801351  1.02327240  1
  Li  Li86  1  1.52809128  0.55801351  1.47672760  1
  Li  Li87  1  -0.02809128  1.44198649  0.97672760  1
  Li  Li88  1  1.44198649  0.97672760  -0.02809128  1
  Li  Li89  1  0.55801351  1.47672760  1.52809128  1
  Li  Li90  1  1.05801351  1.02327240  0.47190872  1
  Li  Li91  1  0.94198649  0.52327240  2.02809128  1
  Li  Li92  1  1.47672760  1.52809128  0.55801351  1
  Li  Li93  1  0.97672760  -0.02809128  1.44198649  1
  Li  Li94  1  0.52327240  2.02809128  0.94198649  1
  Li  Li95  1  1.02327240  0.47190872  1.05801351  1
  Li  Li96  1  0.18131829  0.25342066  0.36235782  1
  Li  Li97  1  0.31868171  0.74657934  0.86235782  1
  Li  Li98  1  0.81868171  0.75342066  0.13764218  1
  Li  Li99  1  0.68131829  0.24657934  0.63764218  1
  Li  Li100  1  0.36235782  0.18131829  0.25342066  1
  Li  Li101  1  0.86235782  0.31868171  0.74657934  1
  Li  Li102  1  0.13764218  0.81868171  0.75342066  1
  Li  Li103  1  0.63764218  0.68131829  0.24657934  1
  Li  Li104  1  0.25342066  0.36235782  0.18131829  1
  Li  Li105  1  0.74657934  0.86235782  0.31868171  1
  Li  Li106  1  0.75342066  0.13764218  0.81868171  1
  Li  Li107  1  0.24657934  0.63764218  0.68131829  1
  Li  Li108  1  0.00342066  0.43131829  0.88764218  1
  Li  Li109  1  0.49657934  0.56868171  0.38764218  1
  Li  Li110  1  0.50342066  0.06868171  0.11235782  1
  Li  Li111  1  0.99657934  0.93131829  0.61235782  1
  Li  Li112  1  0.93131829  0.61235782  0.99657934  1
  Li  Li113  1  0.06868171  0.11235782  0.50342066  1
  Li  Li114  1  0.56868171  0.38764218  0.49657934  1
  Li  Li115  1  0.43131829  0.88764218  0.00342066  1
  Li  Li116  1  0.11235782  0.50342066  0.06868171  1
  Li  Li117  1  0.61235782  0.99657934  0.93131829  1
  Li  Li118  1  0.88764218  0.00342066  0.43131829  1
  Li  Li119  1  0.38764218  0.49657934  0.56868171  1
  Li  Li120  1  0.68131829  0.75342066  0.86235782  1
  Li  Li121  1  0.81868171  0.24657934  0.36235782  1
  Li  Li122  1  0.31868171  0.25342066  0.63764218  1
  Li  Li123  1  0.18131829  0.74657934  0.13764218  1
  Li  Li124  1  0.86235782  0.68131829  0.75342066  1
  Li  Li125  1  0.36235782  0.81868171  0.24657934  1
  Li  Li126  1  0.63764218  0.31868171  0.25342066  1
  Li  Li127  1  0.13764218  0.18131829  0.74657934  1
  Li  Li128  1  0.75342066  0.86235782  0.68131829  1
  Li  Li129  1  0.24657934  0.36235782  0.81868171  1
  Li  Li130  1  0.25342066  0.63764218  0.31868171  1
  Li  Li131  1  0.74657934  0.13764218  0.18131829  1
  Li  Li132  1  0.50342066  0.93131829  0.38764218  1
  Li  Li133  1  0.99657934  0.06868171  0.88764218  1
  Li  Li134  1  0.00342066  0.56868171  0.61235782  1
  Li  Li135  1  0.49657934  0.43131829  0.11235782  1
  Li  Li136  1  0.43131829  0.11235782  0.49657934  1
  Li  Li137  1  0.56868171  0.61235782  0.00342066  1
  Li  Li138  1  0.06868171  0.88764218  0.99657934  1
  Li  Li139  1  0.93131829  0.38764218  0.50342066  1
  Li  Li140  1  0.61235782  0.00342066  0.56868171  1
  Li  Li141  1  0.11235782  0.49657934  0.43131829  1
  Li  Li142  1  0.38764218  0.50342066  0.93131829  1
  Li  Li143  1  0.88764218  0.99657934  0.06868171  1
  Te  Te144  1  0.12500000  0.23740278  0.48740278  1
  Te  Te145  1  0.37500000  0.76259722  0.98740278  1
  Te  Te146  1  0.87500000  0.73740278  0.01259722  1
  Te  Te147  1  0.62500000  0.26259722  0.51259722  1
  Te  Te148  1  0.48740278  0.12500000  0.23740278  1
  Te  Te149  1  0.98740278  0.37500000  0.76259722  1
  Te  Te150  1  0.01259722  0.87500000  0.73740278  1
  Te  Te151  1  0.51259722  0.62500000  0.26259722  1
  Te  Te152  1  0.23740278  0.48740278  0.12500000  1
  Te  Te153  1  0.76259722  0.98740278  0.37500000  1
  Te  Te154  1  0.73740278  0.01259722  0.87500000  1
  Te  Te155  1  0.26259722  0.51259722  0.62500000  1
  Te  Te156  1  0.62500000  0.73740278  0.98740278  1
  Te  Te157  1  0.87500000  0.26259722  0.48740278  1
  Te  Te158  1  0.37500000  0.23740278  0.51259722  1
  Te  Te159  1  0.12500000  0.76259722  0.01259722  1
  Te  Te160  1  0.98740278  0.62500000  0.73740278  1
  Te  Te161  1  0.48740278  0.87500000  0.26259722  1
  Te  Te162  1  0.51259722  0.37500000  0.23740278  1
  Te  Te163  1  0.01259722  0.12500000  0.76259722  1
  Te  Te164  1  0.73740278  0.98740278  0.62500000  1
  Te  Te165  1  0.26259722  0.48740278  0.87500000  1
  Te  Te166  1  0.23740278  0.51259722  0.37500000  1
  Te  Te167  1  0.76259722  0.01259722  0.12500000  1
