# generated using pymatgen
data_LiF
_symmetry_space_group_name_H-M   'P 1'
_cell_length_a   12.78890774
_cell_length_b   7.06368657
_cell_length_c   6.69204218
_cell_angle_alpha   90.00000000
_cell_angle_beta   90.00000000
_cell_angle_gamma   90.00000000
_symmetry_Int_Tables_number   1
_chemical_formula_structural   LiF
_chemical_formula_sum   'Li24 F24'
_cell_volume   604.53791635
_cell_formula_units_Z   24
loop_
 _symmetry_equiv_pos_site_id
 _symmetry_equiv_pos_as_xyz
  1  'x, y, z'
loop_
 _atom_site_type_symbol
 _atom_site_label
 _atom_site_symmetry_multiplicity
 _atom_site_fract_x
 _atom_site_fract_y
 _atom_site_fract_z
 _atom_site_occupancy
  F  F0  1  0.78491911  0.09395089  0.58569933  1
  F  F1  1  0.71508089  0.90604911  0.08569933  1
  F  F2  1  0.21508089  0.59395089  0.41430067  1
  F  F3  1  0.28491911  0.40604911  0.91430067  1
  F  F4  1  0.21508089  0.90604911  0.41430067  1
  F  F5  1  0.28491911  0.09395089  0.91430067  1
  F  F6  1  0.78491911  0.40604911  0.58569933  1
  F  F7  1  0.71508089  0.59395089  0.08569933  1
  F  F8  1  0.00827065  0.87471092  0.77063772  1
  F  F9  1  0.49172935  0.12528908  0.27063772  1
  F  F10  1  0.99172935  0.37471092  0.22936228  1
  F  F11  1  0.50827065  0.62528908  0.72936228  1
  F  F12  1  0.99172935  0.12528908  0.22936228  1
  F  F13  1  0.50827065  0.87471092  0.72936228  1
  F  F14  1  0.00827065  0.62528908  0.77063772  1
  F  F15  1  0.49172935  0.37471092  0.27063772  1
  F  F16  1  0.65240744  0.99591511  0.22663082  1
  F  F17  1  0.84759256  0.00408489  0.72663082  1
  F  F18  1  0.34759256  0.49591511  0.77336918  1
  F  F19  1  0.15240744  0.50408489  0.27336918  1
  F  F20  1  0.34759256  0.00408489  0.77336918  1
  F  F21  1  0.15240744  0.99591511  0.27336918  1
  F  F22  1  0.65240744  0.50408489  0.22663082  1
  F  F23  1  0.84759256  0.49591511  0.72663082  1
  Li  Li24  1  0.04402099  0.04414706  0.85276275  1
  Li  Li25  1  0.45597901  -0.04414706  1.35276275  1
  Li  Li26  1  -0.04402099  0.54414706  -0.85276275  1
  Li  Li27  1  0.54402099  0.45585294  -0.35276275  1
  Li  Li28  1  -0.04402099  -0.04414706  -0.85276275  1
  Li  Li29  1  0.54402099  0.04414706  -0.35276275  1
  Li  Li30  1  0.04402099  0.45585294  0.85276275  1
  Li  Li31  1  0.45597901  0.54414706  1.35276275  1
  Li  Li32  1  0.86192009  0.25000000  0.15809433  1
  Li  Li33  1  0.63807991  0.75000000  0.65809433  1
  Li  Li34  1  0.13807991  0.75000000  0.84190567  1
  Li  Li35  1  0.36192009  0.25000000  0.34190567  1
  Li  Li36  1  0.79084484  0.11178872  0.87213479  1
  Li  Li37  1  0.70915516  0.88821128  0.37213479  1
  Li  Li38  1  0.20915516  0.61178872  0.12786521  1
  Li  Li39  1  0.29084484  0.38821128  0.62786521  1
  Li  Li40  1  0.20915516  0.88821128  0.12786521  1
  Li  Li41  1  0.29084484  0.11178872  0.62786521  1
  Li  Li42  1  0.79084484  0.38821128  0.87213479  1
  Li  Li43  1  0.70915516  0.61178872  0.37213479  1
  Li  Li44  1  0.60844474  0.25000000  0.53402074  1
  Li  Li45  1  0.89155526  0.75000000  0.03402074  1
  Li  Li46  1  0.39155526  0.75000000  0.46597926  1
  Li  Li47  1  0.10844474  0.25000000  0.96597926  1
