# generated using pymatgen
data_LiYPSe
_symmetry_space_group_name_H-M   'P 1'
_cell_length_a   5.13273924
_cell_length_b   5.34321097
_cell_length_c   6.94219324
_cell_angle_alpha   94.31311141
_cell_angle_beta   98.75696468
_cell_angle_gamma   106.32648856
_symmetry_Int_Tables_number   1
_chemical_formula_structural   LiYPSe
_chemical_formula_sum   'Li2 Y2 P2 Se2'
_cell_volume   179.18138337
_cell_formula_units_Z   2
loop_
 _symmetry_equiv_pos_site_id
 _symmetry_equiv_pos_as_xyz
  1  'x, y, z'
loop_
 _atom_site_type_symbol
 _atom_site_label
 _atom_site_symmetry_multiplicity
 _atom_site_fract_x
 _atom_site_fract_y
 _atom_site_fract_z
 _atom_site_occupancy
  Y  Y0  1  0.00000000  0.00000000  0.00000000  1
  Y  Y1  1  0.50000000  0.50000000  0.50000000  1
  P  P2  1  0.25000000  0.25000000  0.25000000  1
  P  P3  1  0.75000000  0.25000000  0.00000000  1
  Se  Se4  1  0.25000000  0.75000000  0.50000000  1
  Se  Se5  1  0.85955903  0.55287194  0.85462413  1
  Li  Li6  1  0.66659587  0.46832649  0.42119155  1
  Li  Li7  1  0.63857090  0.45197168  0.73859519  1
