# generated using pymatgen
data_LiSbP
_symmetry_space_group_name_H-M   'P 1'
_cell_length_a   4.83218358
_cell_length_b   4.88302367
_cell_length_c   6.94212809
_cell_angle_alpha   94.99824304
_cell_angle_beta   100.88513421
_cell_angle_gamma   110.07595575
_symmetry_Int_Tables_number   1
_chemical_formula_structural   LiSbP
_chemical_formula_sum   'Li2 Sb2 P2'
_cell_volume   149.01872379
_cell_formula_units_Z   2
loop_
 _symmetry_equiv_pos_site_id
 _symmetry_equiv_pos_as_xyz
  1  'x, y, z'
loop_
 _atom_site_type_symbol
 _atom_site_label
 _atom_site_symmetry_multiplicity
 _atom_site_fract_x
 _atom_site_fract_y
 _atom_site_fract_z
 _atom_site_occupancy
  P  P0  1  0.12500000  0.12500000  0.12500000  1
  P  P1  1  0.50000000  0.50000000  0.50000000  1
  Li  Li2  1  0.25000000  0.25000000  0.25000000  1
  Li  Li3  1  0.75000000  0.75000000  0.75000000  1
  Sb  Sb4  1  0.12357985  0.98716532  0.62925319  1
  Sb  Sb5  1  0.19283072  0.67140207  0.00675585  1
