# generated using pymatgen
data_LiF
_symmetry_space_group_name_H-M   'P 1'
_cell_length_a   12.60944002
_cell_length_b   12.60944002
_cell_length_c   5.49131551
_cell_angle_alpha   90.00000000
_cell_angle_beta   90.00000000
_cell_angle_gamma   120.00000000
_symmetry_Int_Tables_number   1
_chemical_formula_structural   LiF
_chemical_formula_sum   'Li36 F36'
_cell_volume   756.13376072
_cell_formula_units_Z   36
loop_
 _symmetry_equiv_pos_site_id
 _symmetry_equiv_pos_as_xyz
  1  'x, y, z'
loop_
 _atom_site_type_symbol
 _atom_site_label
 _atom_site_symmetry_multiplicity
 _atom_site_fract_x
 _atom_site_fract_y
 _atom_site_fract_z
 _atom_site_occupancy
  F  F0  1  0.66666667  0.33333333  0.50000000  1
  F  F1  1  0.62141842  0.49490098  0.37572095  1
  F  F2  1  0.50509902  0.12651743  0.37572095  1
  F  F3  1  0.87348257  0.37858158  0.37572095  1
  F  F4  1  0.50509902  0.37858158  0.62427905  1
  F  F5  1  0.87348257  0.49490098  0.62427905  1
  F  F6  1  0.62141842  0.12651743  0.62427905  1
  F  F7  1  0.61306111  0.20964243  0.62301267  1
  F  F8  1  0.79035757  0.40341868  0.62301267  1
  F  F9  1  0.59658132  0.38693889  0.62301267  1
  F  F10  1  0.79035757  0.38693889  0.37698733  1
  F  F11  1  0.59658132  0.20964243  0.37698733  1
  F  F12  1  0.61306111  0.40341868  0.37698733  1
  F  F13  1  0.49618682  0.24504974  0.92150748  1
  F  F14  1  0.75495026  0.25113709  0.92150748  1
  F  F15  1  0.74886291  0.50381318  0.92150748  1
  F  F16  1  0.75495026  0.50381318  0.07849252  1
  F  F17  1  0.74886291  0.24504974  0.07849252  1
  F  F18  1  0.49618682  0.25113709  0.07849252  1
  F  F19  1  0.08969742  0.91030258  0.50000000  1
  F  F20  1  0.08969742  0.17939484  0.50000000  1
  F  F21  1  0.82060516  0.91030258  0.50000000  1
  F  F22  1  0.05193998  0.35048498  0.25489327  1
  F  F23  1  0.64951502  0.70145499  0.25489327  1
  F  F24  1  0.29854501  0.94806002  0.25489327  1
  F  F25  1  0.64951502  0.94806002  0.74510673  1
  F  F26  1  0.29854501  0.35048498  0.74510673  1
  F  F27  1  0.05193998  0.70145499  0.74510673  1
  F  F28  1  0.34981795  0.12230231  0.79478471  1
  F  F29  1  0.87769769  0.22751564  0.79478471  1
  F  F30  1  0.77248436  0.65018205  0.79478471  1
  F  F31  1  0.87769769  0.65018205  0.20521529  1
  F  F32  1  0.77248436  0.12230231  0.20521529  1
  F  F33  1  0.34981795  0.22751564  0.20521529  1
  F  F34  1  0.33333333  0.66666667  0.71787208  1
  F  F35  1  0.33333333  0.66666667  0.28212792  1
  Li  Li36  1  0.86139893  0.91679386  0.34008465  1
  Li  Li37  1  -0.91679386  -0.05539493  0.34008465  1
  Li  Li38  1  0.05539493  -0.86139893  0.34008465  1
  Li  Li39  1  -0.91679386  -0.86139893  -0.34008465  1
  Li  Li40  1  0.05539493  0.91679386  -0.34008465  1
  Li  Li41  1  0.86139893  -0.05539493  -0.34008465  1
  Li  Li42  1  0.16048850  0.83951150  0.50000000  1
  Li  Li43  1  0.16048850  0.32097701  0.50000000  1
  Li  Li44  1  0.67902299  0.83951150  0.50000000  1
  Li  Li45  1  0.10971568  0.89028432  -0.00000000  1
  Li  Li46  1  0.10971568  0.21943136  0.00000000  1
  Li  Li47  1  0.78056864  0.89028432  0.00000000  1
  Li  Li48  1  0.85023605  0.83730123  0.14186986  1
  Li  Li49  1  0.16269877  0.01293482  0.14186986  1
  Li  Li50  1  0.98706518  0.14976395  0.14186986  1
  Li  Li51  1  0.16269877  0.14976395  0.85813014  1
  Li  Li52  1  0.98706518  0.83730123  0.85813014  1
  Li  Li53  1  0.85023605  0.01293482  0.85813014  1
  Li  Li54  1  0.01431025  0.36982600  0.72065162  1
  Li  Li55  1  0.63017400  0.64448425  0.72065162  1
  Li  Li56  1  0.35551575  0.98568975  0.72065162  1
  Li  Li57  1  0.63017400  0.98568975  0.27934838  1
  Li  Li58  1  0.35551575  0.36982600  0.27934838  1
  Li  Li59  1  0.01431025  0.64448425  0.27934838  1
  Li  Li60  1  0.00000000  0.00000000  0.00000000  1
  Li  Li61  1  0.40317558  0.64510475  0.68190978  1
  Li  Li62  1  0.35489525  0.75807083  0.68190978  1
  Li  Li63  1  0.24192917  0.59682442  0.68190978  1
  Li  Li64  1  0.35489525  0.59682442  0.31809022  1
  Li  Li65  1  0.24192917  0.64510475  0.31809022  1
  Li  Li66  1  0.40317558  0.75807083  0.31809022  1
  Li  Li67  1  0.33333333  0.66666667  0.00000000  1
  Li  Li68  1  0.59448651  0.40551349  0.00000000  1
  Li  Li69  1  0.59448651  0.18897302  0.00000000  1
  Li  Li70  1  0.81102698  0.40551349  0.00000000  1
  Li  Li71  1  0.66666667  0.33333333  0.00000000  1
