# generated using pymatgen
data_Li3ScF
_symmetry_space_group_name_H-M   'P 1'
_cell_length_a   3.09667341
_cell_length_b   3.04986305
_cell_length_c   5.47356722
_cell_angle_alpha   102.49377881
_cell_angle_beta   107.97683026
_cell_angle_gamma   111.47218029
_symmetry_Int_Tables_number   1
_chemical_formula_structural   Li3ScF
_chemical_formula_sum   'Li3 Sc1 F1'
_cell_volume   42.47385041
_cell_formula_units_Z   1
loop_
 _symmetry_equiv_pos_site_id
 _symmetry_equiv_pos_as_xyz
  1  'x, y, z'
loop_
 _atom_site_type_symbol
 _atom_site_label
 _atom_site_symmetry_multiplicity
 _atom_site_fract_x
 _atom_site_fract_y
 _atom_site_fract_z
 _atom_site_occupancy
  F  F0  1  0.00000000  0.00000000  0.00000000  1
  Li  Li1  1  0.50000000  0.50000000  0.50000000  1
  Li  Li2  1  0.50000000  0.50000000  0.00000000  1
  Li  Li3  1  0.50000000  0.00000000  0.50000000  1
  Sc  Sc4  1  0.00000000  0.50000000  0.50000000  1
