# generated using pymatgen
data_Li3Y2(P2Se)2
_symmetry_space_group_name_H-M   'P 1'
_cell_length_a   4.50060979
_cell_length_b   4.80252244
_cell_length_c   6.99293526
_cell_angle_alpha   95.60695004
_cell_angle_beta   102.21077152
_cell_angle_gamma   112.52088986
_symmetry_Int_Tables_number   1
_chemical_formula_structural   Li3Y2(P2Se)2
_chemical_formula_sum   'Li3 Y2 P4 Se2'
_cell_volume   133.76176047
_cell_formula_units_Z   1
loop_
 _symmetry_equiv_pos_site_id
 _symmetry_equiv_pos_as_xyz
  1  'x, y, z'
loop_
 _atom_site_type_symbol
 _atom_site_label
 _atom_site_symmetry_multiplicity
 _atom_site_fract_x
 _atom_site_fract_y
 _atom_site_fract_z
 _atom_site_occupancy
  P  P0  1  0.00000000  0.00000000  0.00000000  1
  P  P1  1  0.33300000  0.66700000  0.25000000  1
  P  P2  1  0.66700000  0.33300000  0.50000000  1
  P  P3  1  0.00000000  0.00000000  0.75000000  1
  Se  Se4  1  0.91880612  0.48297406  0.11775834  1
  Se  Se5  1  0.42863045  0.89817289  0.52082841  1
  Li  Li6  1  0.41660841  0.52114792  0.30524484  1
  Li  Li7  1  0.11605208  0.48976525  0.80431776  1
  Li  Li8  1  0.59206400  0.77200093  0.79988533  1
  Y  Y9  1  0.81374599  0.03113019  0.26372439  1
  Y  Y10  1  0.43144000  0.37714093  0.12009469  1
