# generated using pymatgen
data_LiF
_symmetry_space_group_name_H-M   'P 1'
_cell_length_a   5.58329820
_cell_length_b   5.58329820
_cell_length_c   28.47505953
_cell_angle_alpha   90.00000000
_cell_angle_beta   90.00000000
_cell_angle_gamma   120.00000000
_symmetry_Int_Tables_number   1
_chemical_formula_structural   LiF
_chemical_formula_sum   'Li36 F36'
_cell_volume   768.73546865
_cell_formula_units_Z   36
loop_
 _symmetry_equiv_pos_site_id
 _symmetry_equiv_pos_as_xyz
  1  'x, y, z'
loop_
 _atom_site_type_symbol
 _atom_site_label
 _atom_site_symmetry_multiplicity
 _atom_site_fract_x
 _atom_site_fract_y
 _atom_site_fract_z
 _atom_site_occupancy
  F  F0  1  0.53754583  0.80522368  0.12700445  1
  F  F1  1  -0.80522368  -0.26767785  0.12700445  1
  F  F2  1  0.26767785  -0.53754583  0.12700445  1
  F  F3  1  -0.53754583  -0.80522368  0.62700445  1
  F  F4  1  0.80522368  0.26767785  0.62700445  1
  F  F5  1  -0.26767785  0.53754583  0.62700445  1
  F  F6  1  -0.53754583  -0.80522368  -0.12700445  1
  F  F7  1  0.80522368  0.26767785  -0.12700445  1
  F  F8  1  -0.26767785  0.53754583  -0.12700445  1
  F  F9  1  0.53754583  0.80522368  0.37299555  1
  F  F10  1  -0.80522368  -0.26767785  0.37299555  1
  F  F11  1  0.26767785  -0.53754583  0.37299555  1
  F  F12  1  0.17008000  0.84496573  0.16320435  1
  F  F13  1  0.15503427  0.32511427  0.16320435  1
  F  F14  1  0.67488573  0.82992000  0.16320435  1
  F  F15  1  0.82992000  0.15503427  0.66320435  1
  F  F16  1  0.84496573  0.67488573  0.66320435  1
  F  F17  1  0.32511427  0.17008000  0.66320435  1
  F  F18  1  0.82992000  0.15503427  0.83679565  1
  F  F19  1  0.84496573  0.67488573  0.83679565  1
  F  F20  1  0.32511427  0.17008000  0.83679565  1
  F  F21  1  0.17008000  0.84496573  0.33679565  1
  F  F22  1  0.15503427  0.32511427  0.33679565  1
  F  F23  1  0.67488573  0.82992000  0.33679565  1
  F  F24  1  0.33333333  0.66666667  0.01571235  1
  F  F25  1  0.66666667  0.33333333  0.51571235  1
  F  F26  1  0.66666667  0.33333333  0.98428765  1
  F  F27  1  0.33333333  0.66666667  0.48428765  1
  F  F28  1  0.50000000  0.00000000  0.00000000  1
  F  F29  1  0.00000000  0.50000000  -0.00000000  1
  F  F30  1  0.50000000  0.50000000  0.00000000  1
  F  F31  1  0.50000000  0.00000000  0.50000000  1
  F  F32  1  0.00000000  0.50000000  0.50000000  1
  F  F33  1  0.50000000  0.50000000  0.50000000  1
  F  F34  1  0.66666667  0.33333333  0.25000000  1
  F  F35  1  0.33333333  0.66666667  0.75000000  1
  Li  Li36  1  0.07902252  0.29652533  0.25000000  1
  Li  Li37  1  0.70347467  0.78249719  0.25000000  1
  Li  Li38  1  0.21750281  0.92097748  0.25000000  1
  Li  Li39  1  0.92097748  0.70347467  0.75000000  1
  Li  Li40  1  0.29652533  0.21750281  0.75000000  1
  Li  Li41  1  0.78249719  0.07902252  0.75000000  1
  Li  Li42  1  0.83365283  0.70491152  0.08900541  1
  Li  Li43  1  0.29508848  0.12874131  0.08900541  1
  Li  Li44  1  0.87125869  0.16634717  0.08900541  1
  Li  Li45  1  0.16634717  0.29508848  0.58900541  1
  Li  Li46  1  0.70491152  0.87125869  0.58900541  1
  Li  Li47  1  0.12874131  0.83365283  0.58900541  1
  Li  Li48  1  0.16634717  0.29508848  0.91099459  1
  Li  Li49  1  0.70491152  0.87125869  0.91099459  1
  Li  Li50  1  0.12874131  0.83365283  0.91099459  1
  Li  Li51  1  0.83365283  0.70491152  0.41099459  1
  Li  Li52  1  0.29508848  0.12874131  0.41099459  1
  Li  Li53  1  0.87125869  0.16634717  0.41099459  1
  Li  Li54  1  0.00000000  0.00000000  0.33586675  1
  Li  Li55  1  0.00000000  0.00000000  0.83586675  1
  Li  Li56  1  0.00000000  0.00000000  0.66413325  1
  Li  Li57  1  0.00000000  0.00000000  0.16413325  1
  Li  Li58  1  0.00000000  0.00000000  0.44328177  1
  Li  Li59  1  0.00000000  0.00000000  0.94328177  1
  Li  Li60  1  0.00000000  0.00000000  0.55671823  1
  Li  Li61  1  0.00000000  0.00000000  0.05671823  1
  Li  Li62  1  0.10615878  0.61726270  0.25000000  1
  Li  Li63  1  0.38273730  0.48889608  0.25000000  1
  Li  Li64  1  0.51110392  0.89384122  0.25000000  1
  Li  Li65  1  0.89384122  0.38273730  0.75000000  1
  Li  Li66  1  0.61726270  0.51110392  0.75000000  1
  Li  Li67  1  0.48889608  0.10615878  0.75000000  1
  Li  Li68  1  0.33333333  0.66666667  0.67021530  1
  Li  Li69  1  0.66666667  0.33333333  0.17021530  1
  Li  Li70  1  0.66666667  0.33333333  0.32978470  1
  Li  Li71  1  0.33333333  0.66666667  0.82978470  1
