# generated using pymatgen
data_LiF
_symmetry_space_group_name_H-M   'P 1'
_cell_length_a   6.09439619
_cell_length_b   6.09439619
_cell_length_c   29.37738122
_cell_angle_alpha   90.00000000
_cell_angle_beta   90.00000000
_cell_angle_gamma   90.00000000
_symmetry_Int_Tables_number   1
_chemical_formula_structural   LiF
_chemical_formula_sum   'Li56 F56'
_cell_volume   1091.12485031
_cell_formula_units_Z   56
loop_
 _symmetry_equiv_pos_site_id
 _symmetry_equiv_pos_as_xyz
  1  'x, y, z'
loop_
 _atom_site_type_symbol
 _atom_site_label
 _atom_site_symmetry_multiplicity
 _atom_site_fract_x
 _atom_site_fract_y
 _atom_site_fract_z
 _atom_site_occupancy
  F  F0  1  0.28618598  0.52776754  0.98281587  1
  F  F1  1  0.21381402  0.47223246  0.48281587  1
  F  F2  1  0.72223246  0.03618598  0.23281587  1
  F  F3  1  0.77776754  0.96381402  0.73281587  1
  F  F4  1  0.21381402  0.52776754  0.01718413  1
  F  F5  1  0.28618598  0.47223246  0.51718413  1
  F  F6  1  0.77776754  0.03618598  0.76718413  1
  F  F7  1  0.72223246  0.96381402  0.26718413  1
  F  F8  1  0.71381402  0.47223246  0.01718413  1
  F  F9  1  0.78618598  0.52776754  0.51718413  1
  F  F10  1  0.27776754  0.96381402  0.76718413  1
  F  F11  1  0.22223246  0.03618598  0.26718413  1
  F  F12  1  0.78618598  0.47223246  0.98281587  1
  F  F13  1  0.71381402  0.52776754  0.48281587  1
  F  F14  1  0.22223246  0.96381402  0.23281587  1
  F  F15  1  0.27776754  0.03618598  0.73281587  1
  F  F16  1  0.78618598  0.02776754  0.48281587  1
  F  F17  1  0.71381402  0.97223246  0.98281587  1
  F  F18  1  0.22223246  0.53618598  0.73281587  1
  F  F19  1  0.27776754  0.46381402  0.23281587  1
  F  F20  1  0.71381402  0.02776754  0.51718413  1
  F  F21  1  0.78618598  0.97223246  0.01718413  1
  F  F22  1  0.27776754  0.53618598  0.26718413  1
  F  F23  1  0.22223246  0.46381402  0.76718413  1
  F  F24  1  0.21381402  0.97223246  0.51718413  1
  F  F25  1  0.28618598  0.02776754  0.01718413  1
  F  F26  1  0.77776754  0.46381402  0.26718413  1
  F  F27  1  0.72223246  0.53618598  0.76718413  1
  F  F28  1  0.28618598  0.97223246  0.48281587  1
  F  F29  1  0.21381402  0.02776754  0.98281587  1
  F  F30  1  0.72223246  0.46381402  0.73281587  1
  F  F31  1  0.77776754  0.53618598  0.23281587  1
  F  F32  1  0.13903391  0.00000000  0.25000000  1
  F  F33  1  0.36096609  0.00000000  0.75000000  1
  F  F34  1  0.25000000  0.88903391  0.50000000  1
  F  F35  1  0.25000000  0.11096609  -0.00000000  1
  F  F36  1  0.86096609  0.00000000  0.75000000  1
  F  F37  1  0.63903391  0.00000000  0.25000000  1
  F  F38  1  0.75000000  0.11096609  0.50000000  1
  F  F39  1  0.75000000  0.88903391  0.00000000  1
  F  F40  1  0.63903391  0.50000000  0.75000000  1
  F  F41  1  0.86096609  0.50000000  0.25000000  1
  F  F42  1  0.75000000  0.38903391  0.00000000  1
  F  F43  1  0.75000000  0.61096609  0.50000000  1
  F  F44  1  0.36096609  0.50000000  0.25000000  1
  F  F45  1  0.13903391  0.50000000  0.75000000  1
  F  F46  1  0.25000000  0.61096609  0.00000000  1
  F  F47  1  0.25000000  0.38903391  0.50000000  1
  F  F48  1  0.00000000  0.25000000  0.37500000  1
  F  F49  1  0.00000000  0.75000000  0.62500000  1
  F  F50  1  0.50000000  0.25000000  0.62500000  1
  F  F51  1  0.50000000  0.75000000  0.37500000  1
  F  F52  1  0.50000000  0.75000000  0.87500000  1
  F  F53  1  0.50000000  0.25000000  0.12500000  1
  F  F54  1  0.00000000  0.75000000  0.12500000  1
  F  F55  1  0.00000000  0.25000000  0.87500000  1
  Li  Li56  1  0.36717113  0.16129443  0.64054684  1
  Li  Li57  1  0.13282887  -0.16129443  1.14054684  1
  Li  Li58  1  0.08870557  1.11717113  0.89054684  1
  Li  Li59  1  0.41129443  -0.11717113  1.39054684  1
  Li  Li60  1  0.13282887  0.16129443  -0.64054684  1
  Li  Li61  1  0.36717113  -0.16129443  -0.14054684  1
  Li  Li62  1  0.41129443  1.11717113  0.10945316  1
  Li  Li63  1  0.08870557  -0.11717113  -0.39054684  1
  Li  Li64  1  -0.36717113  -0.16129443  -0.64054684  1
  Li  Li65  1  0.86717113  0.16129443  -0.14054684  1
  Li  Li66  1  0.91129443  -0.11717113  0.10945316  1
  Li  Li67  1  0.58870557  1.11717113  -0.39054684  1
  Li  Li68  1  0.86717113  -0.16129443  0.64054684  1
  Li  Li69  1  -0.36717113  0.16129443  1.14054684  1
  Li  Li70  1  0.58870557  -0.11717113  0.89054684  1
  Li  Li71  1  0.91129443  1.11717113  1.39054684  1
  Li  Li72  1  0.86717113  0.66129443  1.14054684  1
  Li  Li73  1  0.63282887  0.33870557  1.64054684  1
  Li  Li74  1  0.58870557  1.61717113  1.39054684  1
  Li  Li75  1  0.91129443  0.38282887  1.89054684  1
  Li  Li76  1  0.63282887  0.66129443  -0.14054684  1
  Li  Li77  1  0.86717113  0.33870557  0.35945316  1
  Li  Li78  1  0.91129443  1.61717113  0.60945316  1
  Li  Li79  1  0.58870557  0.38282887  0.10945316  1
  Li  Li80  1  0.13282887  0.33870557  -0.14054684  1
  Li  Li81  1  1.36717113  0.66129443  0.35945316  1
  Li  Li82  1  1.41129443  0.38282887  0.60945316  1
  Li  Li83  1  1.08870557  1.61717113  0.10945316  1
  Li  Li84  1  1.36717113  0.33870557  1.14054684  1
  Li  Li85  1  0.13282887  0.66129443  1.64054684  1
  Li  Li86  1  1.08870557  0.38282887  1.39054684  1
  Li  Li87  1  1.41129443  1.61717113  1.89054684  1
  Li  Li88  1  0.47099105  0.00000000  0.25000000  1
  Li  Li89  1  0.02900895  0.00000000  0.75000000  1
  Li  Li90  1  0.25000000  0.22099105  0.50000000  1
  Li  Li91  1  0.25000000  0.77900895  0.00000000  1
  Li  Li92  1  0.52900895  0.00000000  0.75000000  1
  Li  Li93  1  0.97099105  0.00000000  0.25000000  1
  Li  Li94  1  0.75000000  0.77900895  0.50000000  1
  Li  Li95  1  0.75000000  0.22099105  -0.00000000  1
  Li  Li96  1  0.97099105  0.50000000  0.75000000  1
  Li  Li97  1  0.52900895  0.50000000  0.25000000  1
  Li  Li98  1  0.75000000  0.72099105  0.00000000  1
  Li  Li99  1  0.75000000  0.27900895  0.50000000  1
  Li  Li100  1  0.02900895  0.50000000  0.25000000  1
  Li  Li101  1  0.47099105  0.50000000  0.75000000  1
  Li  Li102  1  0.25000000  0.27900895  0.00000000  1
  Li  Li103  1  0.25000000  0.72099105  0.50000000  1
  Li  Li104  1  0.00000000  0.25000000  0.12500000  1
  Li  Li105  1  0.00000000  0.75000000  0.37500000  1
  Li  Li106  1  0.00000000  0.75000000  0.87500000  1
  Li  Li107  1  0.00000000  0.25000000  0.62500000  1
  Li  Li108  1  0.50000000  0.75000000  0.62500000  1
  Li  Li109  1  0.50000000  0.25000000  0.87500000  1
  Li  Li110  1  0.50000000  0.25000000  0.37500000  1
  Li  Li111  1  0.50000000  0.75000000  0.12500000  1
