# generated using pymatgen
data_LiCaF3
_symmetry_space_group_name_H-M   'P 1'
_cell_length_a   13.57536337
_cell_length_b   13.57536337
_cell_length_c   9.05540661
_cell_angle_alpha   90.00000000
_cell_angle_beta   90.00000000
_cell_angle_gamma   120.00000000
_symmetry_Int_Tables_number   1
_chemical_formula_structural   LiCaF3
_chemical_formula_sum   'Li18 Ca18 F54'
_cell_volume   1445.24512721
_cell_formula_units_Z   18
loop_
 _symmetry_equiv_pos_site_id
 _symmetry_equiv_pos_as_xyz
  1  'x, y, z'
loop_
 _atom_site_type_symbol
 _atom_site_label
 _atom_site_symmetry_multiplicity
 _atom_site_fract_x
 _atom_site_fract_y
 _atom_site_fract_z
 _atom_site_occupancy
  Ca  Ca0  1  0.00000000  0.00000000  0.50000000  1
  Ca  Ca1  1  0.70138086  0.05508726  0.68675556  1
  Ca  Ca2  1  -0.05508726  0.64629361  0.68675556  1
  Ca  Ca3  1  -0.64629361  -0.70138086  0.68675556  1
  Ca  Ca4  1  -0.05508726  -0.70138086  -0.68675556  1
  Ca  Ca5  1  -0.64629361  0.05508726  -0.68675556  1
  Ca  Ca6  1  0.70138086  0.64629361  -0.68675556  1
  Ca  Ca7  1  0.66666667  0.33333333  0.50000000  1
  Ca  Ca8  1  0.45102024  0.19516317  0.70528852  1
  Ca  Ca9  1  0.80483683  0.25585708  0.70528852  1
  Ca  Ca10  1  0.74414292  0.54897976  0.70528852  1
  Ca  Ca11  1  0.80483683  0.54897976  0.29471148  1
  Ca  Ca12  1  0.74414292  0.19516317  0.29471148  1
  Ca  Ca13  1  0.45102024  0.25585708  0.29471148  1
  Ca  Ca14  1  0.54418255  0.45581745  0.00000000  1
  Ca  Ca15  1  0.54418255  0.08836511  0.00000000  1
  Ca  Ca16  1  0.91163489  0.45581745  -0.00000000  1
  Ca  Ca17  1  0.33333333  0.66666667  -0.00000000  1
  F  F18  1  0.30297435  0.53494511  0.32510494  1
  F  F19  1  0.46505489  0.76802924  0.32510494  1
  F  F20  1  0.23197076  0.69702565  0.32510494  1
  F  F21  1  0.46505489  0.69702565  0.67489506  1
  F  F22  1  0.23197076  0.53494511  0.67489506  1
  F  F23  1  0.30297435  0.76802924  0.67489506  1
  F  F24  1  0.36364683  0.04004124  0.87494026  1
  F  F25  1  0.95995876  0.32360559  0.87494026  1
  F  F26  1  0.67639441  0.63635317  0.87494026  1
  F  F27  1  0.95995876  0.63635317  0.12505974  1
  F  F28  1  0.67639441  0.04004124  0.12505974  1
  F  F29  1  0.36364683  0.32360559  0.12505974  1
  F  F30  1  0.24824956  0.39296120  0.25301095  1
  F  F31  1  0.60703880  0.85528836  0.25301095  1
  F  F32  1  0.14471164  0.75175044  0.25301095  1
  F  F33  1  0.60703880  0.75175044  0.74698905  1
  F  F34  1  0.14471164  0.39296120  0.74698905  1
  F  F35  1  0.24824956  0.85528836  0.74698905  1
  F  F36  1  0.66666667  0.33333333  0.00000000  1
  F  F37  1  0.06775410  0.93224590  -0.00000000  1
  F  F38  1  0.06775410  0.13550821  0.00000000  1
  F  F39  1  0.86449179  0.93224590  0.00000000  1
  F  F40  1  0.33333333  0.66666667  0.54370122  1
  F  F41  1  0.33333333  0.66666667  0.45629878  1
  F  F42  1  0.20845488  0.11555481  0.92528022  1
  F  F43  1  0.88444519  0.09290007  0.92528022  1
  F  F44  1  0.90709993  0.79154512  0.92528022  1
  F  F45  1  0.88444519  0.79154512  0.07471978  1
  F  F46  1  0.90709993  0.11555481  0.07471978  1
  F  F47  1  0.20845488  0.09290007  0.07471978  1
  F  F48  1  0.54478316  0.45521684  0.50000000  1
  F  F49  1  0.54478316  0.08956631  0.50000000  1
  F  F50  1  0.91043369  0.45521684  0.50000000  1
  F  F51  1  0.65486508  0.64531998  0.18469204  1
  F  F52  1  0.35468002  0.00954511  0.18469204  1
  F  F53  1  0.99045489  0.34513492  0.18469204  1
  F  F54  1  0.35468002  0.34513492  0.81530796  1
  F  F55  1  0.99045489  0.64531998  0.81530796  1
  F  F56  1  0.65486508  0.00954511  0.81530796  1
  F  F57  1  0.84032769  0.43464297  0.67333030  1
  F  F58  1  0.56535703  0.40568472  0.67333030  1
  F  F59  1  0.59431528  0.15967231  0.67333030  1
  F  F60  1  0.56535703  0.15967231  0.32666970  1
  F  F61  1  0.59431528  0.43464297  0.32666970  1
  F  F62  1  0.84032769  0.40568472  0.32666970  1
  F  F63  1  0.86335448  0.31330411  0.05142311  1
  F  F64  1  0.68669589  0.55005037  0.05142311  1
  F  F65  1  0.44994963  0.13664552  0.05142311  1
  F  F66  1  0.68669589  0.13664552  0.94857689  1
  F  F67  1  0.44994963  0.31330411  0.94857689  1
  F  F68  1  0.86335448  0.55005037  0.94857689  1
  F  F69  1  0.18604158  0.81395842  0.00000000  1
  F  F70  1  0.18604158  0.37208317  -0.00000000  1
  F  F71  1  0.62791683  0.81395842  0.00000000  1
  Li  Li72  1  0.77659984  0.63516617  0.08117615  1
  Li  Li73  1  0.36483383  0.14143366  0.08117615  1
  Li  Li74  1  0.85856634  0.22340016  0.08117615  1
  Li  Li75  1  0.36483383  0.22340016  0.91882385  1
  Li  Li76  1  0.85856634  0.63516617  0.91882385  1
  Li  Li77  1  0.77659984  0.14143366  0.91882385  1
  Li  Li78  1  0.37802870  0.11775588  0.84739370  1
  Li  Li79  1  0.88224412  0.26027282  0.84739370  1
  Li  Li80  1  0.73972718  0.62197130  0.84739370  1
  Li  Li81  1  0.88224412  0.62197130  0.15260630  1
  Li  Li82  1  0.73972718  0.11775588  0.15260630  1
  Li  Li83  1  0.37802870  0.26027282  0.15260630  1
  Li  Li84  1  0.45273903  0.67512833  0.07462528  1
  Li  Li85  1  0.32487167  0.77761070  0.07462528  1
  Li  Li86  1  0.22238930  0.54726097  0.07462528  1
  Li  Li87  1  0.32487167  0.54726097  0.92537472  1
  Li  Li88  1  0.22238930  0.67512833  0.92537472  1
  Li  Li89  1  0.45273903  0.77761070  0.92537472  1
