# generated using pymatgen
data_LiF
_symmetry_space_group_name_H-M   'P 1'
_cell_length_a   5.58210692
_cell_length_b   10.44909502
_cell_length_c   7.40942883
_cell_angle_alpha   90.00000000
_cell_angle_beta   90.00000000
_cell_angle_gamma   90.00000000
_symmetry_Int_Tables_number   1
_chemical_formula_structural   LiF
_chemical_formula_sum   'Li24 F24'
_cell_volume   432.17691012
_cell_formula_units_Z   24
loop_
 _symmetry_equiv_pos_site_id
 _symmetry_equiv_pos_as_xyz
  1  'x, y, z'
loop_
 _atom_site_type_symbol
 _atom_site_label
 _atom_site_symmetry_multiplicity
 _atom_site_fract_x
 _atom_site_fract_y
 _atom_site_fract_z
 _atom_site_occupancy
  F  F0  1  0.58547630  0.80605048  0.29920186  1
  F  F1  1  0.91452370  0.19394952  0.79920186  1
  F  F2  1  0.41452370  0.30605048  0.70079814  1
  F  F3  1  0.08547630  0.69394952  0.20079814  1
  F  F4  1  0.41452370  0.19394952  0.70079814  1
  F  F5  1  0.08547630  0.80605048  0.20079814  1
  F  F6  1  0.58547630  0.69394952  0.29920186  1
  F  F7  1  0.91452370  0.30605048  0.79920186  1
  F  F8  1  0.58978369  0.78765549  0.50833563  1
  F  F9  1  0.91021631  0.21234451  0.00833563  1
  F  F10  1  0.41021631  0.28765549  0.49166437  1
  F  F11  1  0.08978369  0.71234451  0.99166437  1
  F  F12  1  0.41021631  0.21234451  0.49166437  1
  F  F13  1  0.08978369  0.78765549  0.99166437  1
  F  F14  1  0.58978369  0.71234451  0.50833563  1
  F  F15  1  0.91021631  0.28765549  0.00833563  1
  F  F16  1  0.82679888  0.53646044  0.45481846  1
  F  F17  1  0.67320112  0.46353956  0.95481846  1
  F  F18  1  0.17320112  0.03646044  0.54518154  1
  F  F19  1  0.32679888  0.96353956  0.04518154  1
  F  F20  1  0.17320112  0.46353956  0.54518154  1
  F  F21  1  0.32679888  0.53646044  0.04518154  1
  F  F22  1  0.82679888  0.96353956  0.45481846  1
  F  F23  1  0.67320112  0.03646044  0.95481846  1
  Li  Li24  1  0.00000000  0.00000000  0.50000000  1
  Li  Li25  1  0.50000000  0.00000000  0.00000000  1
  Li  Li26  1  0.00000000  0.50000000  0.50000000  1
  Li  Li27  1  0.50000000  0.50000000  0.00000000  1
  Li  Li28  1  0.12682875  0.82073319  0.79810267  1
  Li  Li29  1  0.37317125  -0.82073319  1.29810267  1
  Li  Li30  1  -0.12682875  1.32073319  -0.79810267  1
  Li  Li31  1  0.62682875  -0.32073319  -0.29810267  1
  Li  Li32  1  -0.12682875  -0.82073319  -0.79810267  1
  Li  Li33  1  0.62682875  0.82073319  -0.29810267  1
  Li  Li34  1  0.12682875  -0.32073319  0.79810267  1
  Li  Li35  1  0.37317125  1.32073319  1.29810267  1
  Li  Li36  1  0.84913204  0.61590106  0.88640041  1
  Li  Li37  1  0.65086796  0.38409894  0.38640041  1
  Li  Li38  1  0.15086796  0.11590106  0.11359959  1
  Li  Li39  1  0.34913204  0.88409894  0.61359959  1
  Li  Li40  1  0.15086796  0.38409894  0.11359959  1
  Li  Li41  1  0.34913204  0.61590106  0.61359959  1
  Li  Li42  1  0.84913204  0.88409894  0.88640041  1
  Li  Li43  1  0.65086796  0.11590106  0.38640041  1
  Li  Li44  1  0.76658368  0.25000000  0.81098099  1
  Li  Li45  1  0.73341632  0.75000000  0.31098099  1
  Li  Li46  1  0.23341632  0.75000000  0.18901901  1
  Li  Li47  1  0.26658368  0.25000000  0.68901901  1
