# generated using pymatgen
data_Li2YMoAsP3
_symmetry_space_group_name_H-M   'P 1'
_cell_length_a   6.35771879
_cell_length_b   6.55510921
_cell_length_c   7.74423094
_cell_angle_alpha   93.31890445
_cell_angle_beta   96.64748498
_cell_angle_gamma   100.51016938
_symmetry_Int_Tables_number   1
_chemical_formula_structural   Li2YMoAsP3
_chemical_formula_sum   'Li2 Y1 Mo1 As1 P3'
_cell_volume   314.16363777
_cell_formula_units_Z   1
loop_
 _symmetry_equiv_pos_site_id
 _symmetry_equiv_pos_as_xyz
  1  'x, y, z'
loop_
 _atom_site_type_symbol
 _atom_site_label
 _atom_site_symmetry_multiplicity
 _atom_site_fract_x
 _atom_site_fract_y
 _atom_site_fract_z
 _atom_site_occupancy
  P  P0  1  0.00000000  0.00000000  0.00000000  1
  P  P1  1  0.50000000  0.50000000  0.50000000  1
  P  P2  1  0.25000000  0.25000000  0.25000000  1
  Mo  Mo3  1  0.75000000  0.25000000  0.00000000  1
  As  As4  1  0.25000000  0.75000000  0.50000000  1
  Li  Li5  1  0.09636096  0.18595185  0.05127536  1
  Li  Li6  1  0.27333127  0.99278171  0.33044631  1
  Y  Y7  1  0.10769945  0.02530255  0.13132686  1
