# generated using pymatgen
data_LiF
_symmetry_space_group_name_H-M   'P 1'
_cell_length_a   8.07355754
_cell_length_b   7.43463705
_cell_length_c   9.54543488
_cell_angle_alpha   90.00000000
_cell_angle_beta   90.00000000
_cell_angle_gamma   90.00000000
_symmetry_Int_Tables_number   1
_chemical_formula_structural   LiF
_chemical_formula_sum   'Li24 F24'
_cell_volume   572.95489677
_cell_formula_units_Z   24
loop_
 _symmetry_equiv_pos_site_id
 _symmetry_equiv_pos_as_xyz
  1  'x, y, z'
loop_
 _atom_site_type_symbol
 _atom_site_label
 _atom_site_symmetry_multiplicity
 _atom_site_fract_x
 _atom_site_fract_y
 _atom_site_fract_z
 _atom_site_occupancy
  F  F0  1  0.00000000  0.50000000  0.50000000  1
  F  F1  1  0.50000000  0.00000000  0.50000000  1
  F  F2  1  0.73154254  0.02660310  0.94939318  1
  F  F3  1  -0.73154254  -0.02660310  0.94939318  1
  F  F4  1  -0.23154254  0.52660310  -0.94939318  1
  F  F5  1  1.23154254  0.47339690  -0.94939318  1
  F  F6  1  -0.73154254  -0.02660310  -0.94939318  1
  F  F7  1  0.73154254  0.02660310  -0.94939318  1
  F  F8  1  1.23154254  0.47339690  0.94939318  1
  F  F9  1  -0.23154254  0.52660310  0.94939318  1
  F  F10  1  0.76754671  0.62975993  0.87437301  1
  F  F11  1  0.23245329  0.37024007  0.87437301  1
  F  F12  1  0.73245329  0.12975993  0.12562699  1
  F  F13  1  0.26754671  0.87024007  0.12562699  1
  F  F14  1  0.23245329  0.37024007  0.12562699  1
  F  F15  1  0.76754671  0.62975993  0.12562699  1
  F  F16  1  0.26754671  0.87024007  0.87437301  1
  F  F17  1  0.73245329  0.12975993  0.87437301  1
  F  F18  1  0.00000000  0.50000000  0.00000000  1
  F  F19  1  0.50000000  0.00000000  0.00000000  1
  F  F20  1  0.63741044  0.38908109  0.00000000  1
  F  F21  1  0.36258956  0.61091891  0.00000000  1
  F  F22  1  0.86258956  0.88908109  0.00000000  1
  F  F23  1  0.13741044  0.11091891  -0.00000000  1
  Li  Li24  1  0.89768778  0.26221676  0.50000000  1
  Li  Li25  1  0.10231222  0.73778324  0.50000000  1
  Li  Li26  1  0.60231222  0.76221676  0.50000000  1
  Li  Li27  1  0.39768778  0.23778324  0.50000000  1
  Li  Li28  1  0.00000000  0.00000000  0.17155338  1
  Li  Li29  1  0.50000000  0.50000000  0.82844662  1
  Li  Li30  1  0.00000000  0.00000000  0.82844662  1
  Li  Li31  1  0.50000000  0.50000000  0.17155338  1
  Li  Li32  1  0.02011348  0.27554779  0.80422047  1
  Li  Li33  1  0.97988652  0.72445221  0.80422047  1
  Li  Li34  1  0.47988652  0.77554779  0.19577953  1
  Li  Li35  1  0.52011348  0.22445221  0.19577953  1
  Li  Li36  1  0.97988652  0.72445221  0.19577953  1
  Li  Li37  1  0.02011348  0.27554779  0.19577953  1
  Li  Li38  1  0.52011348  0.22445221  0.80422047  1
  Li  Li39  1  0.47988652  0.77554779  0.80422047  1
  Li  Li40  1  0.90093262  0.53452797  0.16319050  1
  Li  Li41  1  0.09906738  0.46547203  0.16319050  1
  Li  Li42  1  0.59906738  0.03452797  0.83680950  1
  Li  Li43  1  0.40093262  0.96547203  0.83680950  1
  Li  Li44  1  0.09906738  0.46547203  0.83680950  1
  Li  Li45  1  0.90093262  0.53452797  0.83680950  1
  Li  Li46  1  0.40093262  0.96547203  0.16319050  1
  Li  Li47  1  0.59906738  0.03452797  0.16319050  1
