# generated using pymatgen
data_Li2Y2As4P3Se2
_symmetry_space_group_name_H-M   'P 1'
_cell_length_a   4.76631543
_cell_length_b   4.98907805
_cell_length_c   6.92216848
_cell_angle_alpha   94.86128374
_cell_angle_beta   100.73464225
_cell_angle_gamma   109.70427686
_symmetry_Int_Tables_number   1
_chemical_formula_structural   Li2Y2As4P3Se2
_chemical_formula_sum   'Li2 Y2 As4 P3 Se2'
_cell_volume   150.30604172
_cell_formula_units_Z   1
loop_
 _symmetry_equiv_pos_site_id
 _symmetry_equiv_pos_as_xyz
  1  'x, y, z'
loop_
 _atom_site_type_symbol
 _atom_site_label
 _atom_site_symmetry_multiplicity
 _atom_site_fract_x
 _atom_site_fract_y
 _atom_site_fract_z
 _atom_site_occupancy
  Se  Se0  1  0.00000000  0.00000000  0.00000000  1
  Se  Se1  1  0.50000000  0.50000000  0.50000000  1
  Y  Y2  1  0.25000000  0.25000000  0.25000000  1
  Y  Y3  1  0.75000000  0.25000000  0.00000000  1
  P  P4  1  0.25000000  0.75000000  0.50000000  1
  P  P5  1  0.77653153  0.28122563  0.72965265  1
  P  P6  1  0.52892190  0.23351350  0.29823059  1
  As  As7  1  0.66588421  0.19256325  0.00836544  1
  As  As8  1  0.00226261  0.38822639  0.12867251  1
  As  As9  1  0.26133064  0.61832095  0.21381106  1
  As  As10  1  0.95324482  0.70969741  0.62040784  1
  Li  Li11  1  0.73260740  0.68095735  0.52177018  1
  Li  Li12  1  0.29419580  0.97796032  0.03867377  1
