# generated using pymatgen
data_LiF
_symmetry_space_group_name_H-M   'P 1'
_cell_length_a   7.11554478
_cell_length_b   9.61595987
_cell_length_c   10.79066080
_cell_angle_alpha   90.00000000
_cell_angle_beta   90.00000000
_cell_angle_gamma   90.00000000
_symmetry_Int_Tables_number   1
_chemical_formula_structural   LiF
_chemical_formula_sum   'Li24 F24'
_cell_volume   738.32715073
_cell_formula_units_Z   24
loop_
 _symmetry_equiv_pos_site_id
 _symmetry_equiv_pos_as_xyz
  1  'x, y, z'
loop_
 _atom_site_type_symbol
 _atom_site_label
 _atom_site_symmetry_multiplicity
 _atom_site_fract_x
 _atom_site_fract_y
 _atom_site_fract_z
 _atom_site_occupancy
  F  F0  1  0.76433610  0.50037219  0.49670863  1
  F  F1  1  0.73566390  0.49962781  0.99670863  1
  F  F2  1  0.23566390  0.00037219  0.50329137  1
  F  F3  1  0.26433610  0.99962781  0.00329137  1
  F  F4  1  0.23566390  0.49962781  0.50329137  1
  F  F5  1  0.26433610  0.50037219  0.00329137  1
  F  F6  1  0.76433610  0.99962781  0.49670863  1
  F  F7  1  0.73566390  0.00037219  0.99670863  1
  F  F8  1  0.50296384  0.25000000  0.51327778  1
  F  F9  1  0.99703616  0.75000000  0.01327778  1
  F  F10  1  0.49703616  0.75000000  0.48672222  1
  F  F11  1  0.00296384  0.25000000  0.98672222  1
  F  F12  1  0.48234378  0.25000000  0.40285359  1
  F  F13  1  0.01765622  0.75000000  0.90285359  1
  F  F14  1  0.51765622  0.75000000  0.59714641  1
  F  F15  1  0.98234378  0.25000000  0.09714641  1
  F  F16  1  0.39768709  0.25000000  0.45545287  1
  F  F17  1  0.10231291  0.75000000  0.95545287  1
  F  F18  1  0.60231291  0.75000000  0.54454713  1
  F  F19  1  0.89768709  0.25000000  0.04454713  1
  F  F20  1  0.00000000  0.00000000  0.00000000  1
  F  F21  1  0.50000000  0.00000000  0.50000000  1
  F  F22  1  0.00000000  0.50000000  0.00000000  1
  F  F23  1  0.50000000  0.50000000  0.50000000  1
  Li  Li24  1  0.00000000  0.00000000  0.50000000  1
  Li  Li25  1  0.50000000  0.00000000  0.00000000  1
  Li  Li26  1  0.00000000  0.50000000  0.50000000  1
  Li  Li27  1  0.50000000  0.50000000  0.00000000  1
  Li  Li28  1  0.24938073  0.83152317  0.50387729  1
  Li  Li29  1  0.25061927  -0.83152317  1.00387729  1
  Li  Li30  1  -0.24938073  1.33152317  -0.50387729  1
  Li  Li31  1  0.74938073  -0.33152317  -0.00387729  1
  Li  Li32  1  -0.24938073  -0.83152317  -0.50387729  1
  Li  Li33  1  0.74938073  0.83152317  -0.00387729  1
  Li  Li34  1  0.24938073  -0.33152317  0.50387729  1
  Li  Li35  1  0.25061927  1.33152317  1.00387729  1
  Li  Li36  1  0.24112923  0.25000000  0.89577514  1
  Li  Li37  1  0.25887077  0.75000000  0.39577514  1
  Li  Li38  1  0.75887077  0.75000000  0.10422486  1
  Li  Li39  1  0.74112923  0.25000000  0.60422486  1
  Li  Li40  1  0.25509088  0.34439614  0.29438040  1
  Li  Li41  1  0.24490912  0.65560386  0.79438040  1
  Li  Li42  1  0.74490912  0.84439614  0.70561960  1
  Li  Li43  1  0.75509088  0.15560386  0.20561960  1
  Li  Li44  1  0.74490912  0.65560386  0.70561960  1
  Li  Li45  1  0.75509088  0.34439614  0.20561960  1
  Li  Li46  1  0.25509088  0.15560386  0.29438040  1
  Li  Li47  1  0.24490912  0.84439614  0.79438040  1
