# generated using pymatgen
data_LiF
_symmetry_space_group_name_H-M   'P 1'
_cell_length_a   9.90080871
_cell_length_b   9.21366547
_cell_length_c   5.80111271
_cell_angle_alpha   90.00000000
_cell_angle_beta   90.00000000
_cell_angle_gamma   90.00000000
_symmetry_Int_Tables_number   1
_chemical_formula_structural   LiF
_chemical_formula_sum   'Li20 F20'
_cell_volume   529.19339244
_cell_formula_units_Z   20
loop_
 _symmetry_equiv_pos_site_id
 _symmetry_equiv_pos_as_xyz
  1  'x, y, z'
loop_
 _atom_site_type_symbol
 _atom_site_label
 _atom_site_symmetry_multiplicity
 _atom_site_fract_x
 _atom_site_fract_y
 _atom_site_fract_z
 _atom_site_occupancy
  F  F0  1  0.36111825  0.63530727  0.50000000  1
  F  F1  1  0.63888175  0.36469273  0.50000000  1
  F  F2  1  0.13888175  0.13530727  0.50000000  1
  F  F3  1  0.86111825  0.86469273  0.50000000  1
  F  F4  1  0.00000000  0.00000000  0.26703496  1
  F  F5  1  0.50000000  0.50000000  0.73296504  1
  F  F6  1  0.00000000  0.00000000  0.73296504  1
  F  F7  1  0.50000000  0.50000000  0.26703496  1
  F  F8  1  0.10229774  0.56527462  0.58882957  1
  F  F9  1  -0.10229774  -0.56527462  0.58882957  1
  F  F10  1  0.39770226  1.06527462  -0.58882957  1
  F  F11  1  0.60229774  -0.06527462  -0.58882957  1
  F  F12  1  -0.10229774  -0.56527462  -0.58882957  1
  F  F13  1  0.10229774  0.56527462  -0.58882957  1
  F  F14  1  0.60229774  -0.06527462  0.58882957  1
  F  F15  1  0.39770226  1.06527462  0.58882957  1
  F  F16  1  0.81639053  0.81654168  0.50000000  1
  F  F17  1  0.18360947  0.18345832  0.50000000  1
  F  F18  1  0.68360947  0.31654168  0.50000000  1
  F  F19  1  0.31639053  0.68345832  0.50000000  1
  Li  Li20  1  0.66341065  0.18937189  0.50000000  1
  Li  Li21  1  0.33658935  0.81062811  0.50000000  1
  Li  Li22  1  0.83658935  0.68937189  0.50000000  1
  Li  Li23  1  0.16341065  0.31062811  0.50000000  1
  Li  Li24  1  0.49446015  0.27250395  0.00000000  1
  Li  Li25  1  0.50553985  0.72749605  0.00000000  1
  Li  Li26  1  0.00553985  0.77250395  -0.00000000  1
  Li  Li27  1  0.99446015  0.22749605  0.00000000  1
  Li  Li28  1  0.75627680  0.62359396  0.67108701  1
  Li  Li29  1  0.24372320  0.37640604  0.67108701  1
  Li  Li30  1  0.74372320  0.12359396  0.32891299  1
  Li  Li31  1  0.25627680  0.87640604  0.32891299  1
  Li  Li32  1  0.24372320  0.37640604  0.32891299  1
  Li  Li33  1  0.75627680  0.62359396  0.32891299  1
  Li  Li34  1  0.25627680  0.87640604  0.67108701  1
  Li  Li35  1  0.74372320  0.12359396  0.67108701  1
  Li  Li36  1  0.82244922  0.28110911  0.00000000  1
  Li  Li37  1  0.17755078  0.71889089  0.00000000  1
  Li  Li38  1  0.67755078  0.78110911  0.00000000  1
  Li  Li39  1  0.32244922  0.21889089  0.00000000  1
