# generated using pymatgen
data_LiF
_symmetry_space_group_name_H-M   'P 1'
_cell_length_a   12.38667134
_cell_length_b   12.38667134
_cell_length_c   5.10412919
_cell_angle_alpha   90.00000000
_cell_angle_beta   90.00000000
_cell_angle_gamma   120.00000000
_symmetry_Int_Tables_number   1
_chemical_formula_structural   LiF
_chemical_formula_sum   'Li25 F25'
_cell_volume   678.20583039
_cell_formula_units_Z   25
loop_
 _symmetry_equiv_pos_site_id
 _symmetry_equiv_pos_as_xyz
  1  'x, y, z'
loop_
 _atom_site_type_symbol
 _atom_site_label
 _atom_site_symmetry_multiplicity
 _atom_site_fract_x
 _atom_site_fract_y
 _atom_site_fract_z
 _atom_site_occupancy
  F  F0  1  0.88328330  0.11671670  0.50000000  1
  F  F1  1  0.88328330  0.76656660  0.50000000  1
  F  F2  1  0.23343340  0.11671670  0.50000000  1
  F  F3  1  0.00154047  0.07147683  0.71049794  1
  F  F4  1  0.92852317  0.93006364  0.71049794  1
  F  F5  1  0.06993636  0.99845953  0.71049794  1
  F  F6  1  0.92852317  0.99845953  0.28950206  1
  F  F7  1  0.06993636  0.07147683  0.28950206  1
  F  F8  1  0.00154047  0.93006364  0.28950206  1
  F  F9  1  0.00000000  0.00000000  0.50000000  1
  F  F10  1  0.26192733  0.73807267  0.50000000  1
  F  F11  1  0.26192733  0.52385466  0.50000000  1
  F  F12  1  0.47614534  0.73807267  0.50000000  1
  F  F13  1  0.29103536  0.28314038  0.24265294  1
  F  F14  1  0.71685962  0.00789498  0.24265294  1
  F  F15  1  0.99210502  0.70896464  0.24265294  1
  F  F16  1  0.71685962  0.70896464  0.75734706  1
  F  F17  1  0.99210502  0.28314038  0.75734706  1
  F  F18  1  0.29103536  0.00789498  0.75734706  1
  F  F19  1  0.70012563  0.51428966  0.32398897  1
  F  F20  1  0.48571034  0.18583597  0.32398897  1
  F  F21  1  0.81416403  0.29987437  0.32398897  1
  F  F22  1  0.48571034  0.29987437  0.67601103  1
  F  F23  1  0.81416403  0.51428966  0.67601103  1
  F  F24  1  0.70012563  0.18583597  0.67601103  1
  Li  Li25  1  0.33333333  0.66666667  0.30878839  1
  Li  Li26  1  0.33333333  0.66666667  0.69121161  1
  Li  Li27  1  0.46979097  0.44996772  0.89175745  1
  Li  Li28  1  -0.44996772  0.01982325  0.89175745  1
  Li  Li29  1  -0.01982325  -0.46979097  0.89175745  1
  Li  Li30  1  -0.44996772  -0.46979097  -0.89175745  1
  Li  Li31  1  -0.01982325  0.44996772  -0.89175745  1
  Li  Li32  1  0.46979097  0.01982325  -0.89175745  1
  Li  Li33  1  0.46339237  0.21744245  0.85038977  1
  Li  Li34  1  0.78255755  0.24594992  0.85038977  1
  Li  Li35  1  0.75405008  0.53660763  0.85038977  1
  Li  Li36  1  0.78255755  0.53660763  0.14961023  1
  Li  Li37  1  0.75405008  0.21744245  0.14961023  1
  Li  Li38  1  0.46339237  0.24594992  0.14961023  1
  Li  Li39  1  0.66129476  0.75788916  0.30860488  1
  Li  Li40  1  0.24211084  0.90340560  0.30860488  1
  Li  Li41  1  0.09659440  0.33870524  0.30860488  1
  Li  Li42  1  0.24211084  0.33870524  0.69139512  1
  Li  Li43  1  0.09659440  0.75788916  0.69139512  1
  Li  Li44  1  0.66129476  0.90340560  0.69139512  1
  Li  Li45  1  0.05084009  0.94915991  0.00000000  1
  Li  Li46  1  0.05084009  0.10168018  0.00000000  1
  Li  Li47  1  0.89831982  0.94915991  0.00000000  1
  Li  Li48  1  0.66666667  0.33333333  0.29104766  1
  Li  Li49  1  0.66666667  0.33333333  0.70895234  1
