# generated using pymatgen
data_LiF
_symmetry_space_group_name_H-M   'P 1'
_cell_length_a   7.53283593
_cell_length_b   7.53283593
_cell_length_c   19.21028641
_cell_angle_alpha   90.00000000
_cell_angle_beta   90.00000000
_cell_angle_gamma   120.00000000
_symmetry_Int_Tables_number   1
_chemical_formula_structural   LiF
_chemical_formula_sum   'Li32 F32'
_cell_volume   944.02063727
_cell_formula_units_Z   32
loop_
 _symmetry_equiv_pos_site_id
 _symmetry_equiv_pos_as_xyz
  1  'x, y, z'
loop_
 _atom_site_type_symbol
 _atom_site_label
 _atom_site_symmetry_multiplicity
 _atom_site_fract_x
 _atom_site_fract_y
 _atom_site_fract_z
 _atom_site_occupancy
  F  F0  1  0.66666667  0.33333333  0.48240605  1
  F  F1  1  0.66666667  0.33333333  0.51759395  1
  F  F2  1  0.68122901  0.94720693  0.04700508  1
  F  F3  1  0.05279307  0.73402208  0.04700508  1
  F  F4  1  0.26597792  0.31877099  0.04700508  1
  F  F5  1  0.05279307  0.31877099  0.95299492  1
  F  F6  1  0.26597792  0.94720693  0.95299492  1
  F  F7  1  0.68122901  0.73402208  0.95299492  1
  F  F8  1  0.25071052  0.52967232  0.67006933  1
  F  F9  1  0.47032768  0.72103820  0.67006933  1
  F  F10  1  0.27896180  0.74928948  0.67006933  1
  F  F11  1  0.47032768  0.74928948  0.32993067  1
  F  F12  1  0.27896180  0.52967232  0.32993067  1
  F  F13  1  0.25071052  0.72103820  0.32993067  1
  F  F14  1  0.66666667  0.33333333  -0.00000000  1
  F  F15  1  0.66666667  0.33333333  0.77882252  1
  F  F16  1  0.66666667  0.33333333  0.22117748  1
  F  F17  1  0.53179789  0.94541873  0.37186464  1
  F  F18  1  0.05458127  0.58637916  0.37186464  1
  F  F19  1  0.41362084  0.46820211  0.37186464  1
  F  F20  1  0.05458127  0.46820211  0.62813536  1
  F  F21  1  0.41362084  0.94541873  0.62813536  1
  F  F22  1  0.53179789  0.58637916  0.62813536  1
  F  F23  1  0.80427938  0.58147043  0.63853469  1
  F  F24  1  0.41852957  0.22280896  0.63853469  1
  F  F25  1  0.77719104  0.19572062  0.63853469  1
  F  F26  1  0.41852957  0.19572062  0.36146531  1
  F  F27  1  0.77719104  0.58147043  0.36146531  1
  F  F28  1  0.80427938  0.22280896  0.36146531  1
  F  F29  1  0.55360441  0.44639559  0.50000000  1
  F  F30  1  0.55360441  0.10720882  0.50000000  1
  F  F31  1  0.89279118  0.44639559  0.50000000  1
  Li  Li32  1  0.54817232  0.45182768  -0.00000000  1
  Li  Li33  1  0.54817232  0.09634464  -0.00000000  1
  Li  Li34  1  0.90365536  0.45182768  0.00000000  1
  Li  Li35  1  0.66666667  0.33333333  0.72092555  1
  Li  Li36  1  0.66666667  0.33333333  0.27907445  1
  Li  Li37  1  0.00000000  0.00000000  0.43818355  1
  Li  Li38  1  0.00000000  0.00000000  0.56181645  1
  Li  Li39  1  0.42836659  0.13962715  0.51776569  1
  Li  Li40  1  -0.13962715  0.28873943  0.51776569  1
  Li  Li41  1  -0.28873943  -0.42836659  0.51776569  1
  Li  Li42  1  -0.13962715  -0.42836659  -0.51776569  1
  Li  Li43  1  -0.28873943  0.13962715  -0.51776569  1
  Li  Li44  1  0.42836659  0.28873943  -0.51776569  1
  Li  Li45  1  0.65082349  0.44214884  0.93047320  1
  Li  Li46  1  0.55785116  0.20867465  0.93047320  1
  Li  Li47  1  0.79132535  0.34917651  0.93047320  1
  Li  Li48  1  0.55785116  0.34917651  0.06952680  1
  Li  Li49  1  0.79132535  0.44214884  0.06952680  1
  Li  Li50  1  0.65082349  0.20867465  0.06952680  1
  Li  Li51  1  0.61437532  0.91236268  0.29802733  1
  Li  Li52  1  0.08763732  0.70201265  0.29802733  1
  Li  Li53  1  0.29798735  0.38562468  0.29802733  1
  Li  Li54  1  0.08763732  0.38562468  0.70197267  1
  Li  Li55  1  0.29798735  0.91236268  0.70197267  1
  Li  Li56  1  0.61437532  0.70201265  0.70197267  1
  Li  Li57  1  0.27286321  0.37492379  0.64605041  1
  Li  Li58  1  0.62507621  0.89793942  0.64605041  1
  Li  Li59  1  0.10206058  0.72713679  0.64605041  1
  Li  Li60  1  0.62507621  0.72713679  0.35394959  1
  Li  Li61  1  0.10206058  0.37492379  0.35394959  1
  Li  Li62  1  0.27286321  0.89793942  0.35394959  1
  Li  Li63  1  0.33333333  0.66666667  0.50000000  1
