# generated using pymatgen
data_LiF
_symmetry_space_group_name_H-M   'P 1'
_cell_length_a   6.51740472
_cell_length_b   11.37604260
_cell_length_c   7.42169001
_cell_angle_alpha   90.00000000
_cell_angle_beta   90.00000000
_cell_angle_gamma   90.00000000
_symmetry_Int_Tables_number   1
_chemical_formula_structural   LiF
_chemical_formula_sum   'Li24 F24'
_cell_volume   550.26097219
_cell_formula_units_Z   24
loop_
 _symmetry_equiv_pos_site_id
 _symmetry_equiv_pos_as_xyz
  1  'x, y, z'
loop_
 _atom_site_type_symbol
 _atom_site_label
 _atom_site_symmetry_multiplicity
 _atom_site_fract_x
 _atom_site_fract_y
 _atom_site_fract_z
 _atom_site_occupancy
  F  F0  1  0.14537073  0.09655289  0.96739926  1
  F  F1  1  0.35462927  0.90344711  0.46739926  1
  F  F2  1  0.85462927  0.59655289  0.03260074  1
  F  F3  1  0.64537073  0.40344711  0.53260074  1
  F  F4  1  0.85462927  0.90344711  0.03260074  1
  F  F5  1  0.64537073  0.09655289  0.53260074  1
  F  F6  1  0.14537073  0.40344711  0.96739926  1
  F  F7  1  0.35462927  0.59655289  0.46739926  1
  F  F8  1  0.59343442  0.25000000  0.88437553  1
  F  F9  1  0.90656558  0.75000000  0.38437553  1
  F  F10  1  0.40656558  0.75000000  0.11562447  1
  F  F11  1  0.09343442  0.25000000  0.61562447  1
  F  F12  1  0.42346656  0.98010763  0.50748143  1
  F  F13  1  0.07653344  0.01989237  0.00748143  1
  F  F14  1  0.57653344  0.48010763  0.49251857  1
  F  F15  1  0.92346656  0.51989237  0.99251857  1
  F  F16  1  0.57653344  0.01989237  0.49251857  1
  F  F17  1  0.92346656  0.98010763  0.99251857  1
  F  F18  1  0.42346656  0.51989237  0.50748143  1
  F  F19  1  0.07653344  0.48010763  0.00748143  1
  F  F20  1  0.10892781  0.25000000  0.93565219  1
  F  F21  1  0.39107219  0.75000000  0.43565219  1
  F  F22  1  0.89107219  0.75000000  0.06434781  1
  F  F23  1  0.60892781  0.25000000  0.56434781  1
  Li  Li24  1  0.50130120  0.91554471  0.42876829  1
  Li  Li25  1  -0.00130120  -0.91554471  0.92876829  1
  Li  Li26  1  -0.50130120  1.41554471  -0.42876829  1
  Li  Li27  1  1.00130120  -0.41554471  0.07123171  1
  Li  Li28  1  -0.50130120  -0.91554471  -0.42876829  1
  Li  Li29  1  1.00130120  0.91554471  0.07123171  1
  Li  Li30  1  0.50130120  -0.41554471  0.42876829  1
  Li  Li31  1  -0.00130120  1.41554471  0.92876829  1
  Li  Li32  1  0.00000000  0.00000000  0.50000000  1
  Li  Li33  1  0.50000000  0.00000000  0.00000000  1
  Li  Li34  1  0.00000000  0.50000000  0.50000000  1
  Li  Li35  1  0.50000000  0.50000000  0.00000000  1
  Li  Li36  1  0.98303066  0.93555518  0.84825714  1
  Li  Li37  1  0.51696934  0.06444482  0.34825714  1
  Li  Li38  1  0.01696934  0.43555518  0.15174286  1
  Li  Li39  1  0.48303066  0.56444482  0.65174286  1
  Li  Li40  1  0.01696934  0.06444482  0.15174286  1
  Li  Li41  1  0.48303066  0.93555518  0.65174286  1
  Li  Li42  1  0.98303066  0.56444482  0.84825714  1
  Li  Li43  1  0.51696934  0.43555518  0.34825714  1
  Li  Li44  1  0.10351926  0.25000000  0.17043419  1
  Li  Li45  1  0.39648074  0.75000000  0.67043419  1
  Li  Li46  1  0.89648074  0.75000000  0.82956581  1
  Li  Li47  1  0.60351926  0.25000000  0.32956581  1
