# generated using pymatgen
data_LiF
_symmetry_space_group_name_H-M   'P 1'
_cell_length_a   5.34733713
_cell_length_b   8.78820591
_cell_length_c   11.64448265
_cell_angle_alpha   90.00000000
_cell_angle_beta   90.00000000
_cell_angle_gamma   90.00000000
_symmetry_Int_Tables_number   1
_chemical_formula_structural   LiF
_chemical_formula_sum   'Li24 F24'
_cell_volume   547.21499274
_cell_formula_units_Z   24
loop_
 _symmetry_equiv_pos_site_id
 _symmetry_equiv_pos_as_xyz
  1  'x, y, z'
loop_
 _atom_site_type_symbol
 _atom_site_label
 _atom_site_symmetry_multiplicity
 _atom_site_fract_x
 _atom_site_fract_y
 _atom_site_fract_z
 _atom_site_occupancy
  F  F0  1  0.59297760  0.63566789  0.10828850  1
  F  F1  1  0.90702240  0.36433211  0.60828850  1
  F  F2  1  0.40702240  0.13566789  0.89171150  1
  F  F3  1  0.09297760  0.86433211  0.39171150  1
  F  F4  1  0.40702240  0.36433211  0.89171150  1
  F  F5  1  0.09297760  0.63566789  0.39171150  1
  F  F6  1  0.59297760  0.86433211  0.10828850  1
  F  F7  1  0.90702240  0.13566789  0.60828850  1
  F  F8  1  0.70463887  0.13911169  0.63770413  1
  F  F9  1  0.79536113  0.86088831  0.13770413  1
  F  F10  1  0.29536113  0.63911169  0.36229587  1
  F  F11  1  0.20463887  0.36088831  0.86229587  1
  F  F12  1  0.29536113  0.86088831  0.36229587  1
  F  F13  1  0.20463887  0.13911169  0.86229587  1
  F  F14  1  0.70463887  0.36088831  0.63770413  1
  F  F15  1  0.79536113  0.63911169  0.13770413  1
  F  F16  1  0.76342006  0.25000000  0.92559058  1
  F  F17  1  0.73657994  0.75000000  0.42559058  1
  F  F18  1  0.23657994  0.75000000  0.07440942  1
  F  F19  1  0.26342006  0.25000000  0.57440942  1
  F  F20  1  0.22675618  0.25000000  0.31820344  1
  F  F21  1  0.27324382  0.75000000  0.81820344  1
  F  F22  1  0.77324382  0.75000000  0.68179656  1
  F  F23  1  0.72675618  0.25000000  0.18179656  1
  Li  Li24  1  0.90408959  0.25000000  0.13730496  1
  Li  Li25  1  0.59591041  0.75000000  0.63730496  1
  Li  Li26  1  0.09591041  0.75000000  0.86269504  1
  Li  Li27  1  0.40408959  0.25000000  0.36269504  1
  Li  Li28  1  0.97498288  0.25000000  0.60092279  1
  Li  Li29  1  0.52501712  0.75000000  0.10092279  1
  Li  Li30  1  0.02501712  0.75000000  0.39907721  1
  Li  Li31  1  0.47498288  0.25000000  0.89907721  1
  Li  Li32  1  0.00000000  0.00000000  0.00000000  1
  Li  Li33  1  0.50000000  0.00000000  0.50000000  1
  Li  Li34  1  0.00000000  0.50000000  0.00000000  1
  Li  Li35  1  0.50000000  0.50000000  0.50000000  1
  Li  Li36  1  0.00000000  0.00000000  0.50000000  1
  Li  Li37  1  0.50000000  0.00000000  0.00000000  1
  Li  Li38  1  0.00000000  0.50000000  0.50000000  1
  Li  Li39  1  0.50000000  0.50000000  0.00000000  1
  Li  Li40  1  0.24259556  0.42754136  0.57522819  1
  Li  Li41  1  0.25740444  -0.42754136  1.07522819  1
  Li  Li42  1  -0.24259556  0.92754136  -0.57522819  1
  Li  Li43  1  0.74259556  0.07245864  -0.07522819  1
  Li  Li44  1  -0.24259556  -0.42754136  -0.57522819  1
  Li  Li45  1  0.74259556  0.42754136  -0.07522819  1
  Li  Li46  1  0.24259556  0.07245864  0.57522819  1
  Li  Li47  1  0.25740444  0.92754136  1.07522819  1
