# generated using pymatgen
data_LiF
_symmetry_space_group_name_H-M   'P 1'
_cell_length_a   11.12504481
_cell_length_b   7.15508736
_cell_length_c   6.29106375
_cell_angle_alpha   90.00000000
_cell_angle_beta   90.00000000
_cell_angle_gamma   90.00000000
_symmetry_Int_Tables_number   1
_chemical_formula_structural   LiF
_chemical_formula_sum   'Li24 F24'
_cell_volume   500.77287335
_cell_formula_units_Z   24
loop_
 _symmetry_equiv_pos_site_id
 _symmetry_equiv_pos_as_xyz
  1  'x, y, z'
loop_
 _atom_site_type_symbol
 _atom_site_label
 _atom_site_symmetry_multiplicity
 _atom_site_fract_x
 _atom_site_fract_y
 _atom_site_fract_z
 _atom_site_occupancy
  F  F0  1  0.55272884  0.52218675  0.70887061  1
  F  F1  1  0.94727116  0.47781325  0.20887061  1
  F  F2  1  0.44727116  0.02218675  0.29112939  1
  F  F3  1  0.05272884  0.97781325  0.79112939  1
  F  F4  1  0.44727116  0.47781325  0.29112939  1
  F  F5  1  0.05272884  0.52218675  0.79112939  1
  F  F6  1  0.55272884  0.97781325  0.70887061  1
  F  F7  1  0.94727116  0.02218675  0.20887061  1
  F  F8  1  0.00000000  0.00000000  0.00000000  1
  F  F9  1  0.50000000  0.00000000  0.50000000  1
  F  F10  1  0.00000000  0.50000000  0.00000000  1
  F  F11  1  0.50000000  0.50000000  0.50000000  1
  F  F12  1  0.71954427  0.38633807  0.90202714  1
  F  F13  1  0.78045573  0.61366193  0.40202714  1
  F  F14  1  0.28045573  0.88633807  0.09797286  1
  F  F15  1  0.21954427  0.11366193  0.59797286  1
  F  F16  1  0.28045573  0.61366193  0.09797286  1
  F  F17  1  0.21954427  0.38633807  0.59797286  1
  F  F18  1  0.71954427  0.11366193  0.90202714  1
  F  F19  1  0.78045573  0.88633807  0.40202714  1
  F  F20  1  0.88718321  0.25000000  0.73996686  1
  F  F21  1  0.61281679  0.75000000  0.23996686  1
  F  F22  1  0.11281679  0.75000000  0.26003314  1
  F  F23  1  0.38718321  0.25000000  0.76003314  1
  Li  Li24  1  0.69157244  0.25000000  0.55459785  1
  Li  Li25  1  0.80842756  0.75000000  0.05459785  1
  Li  Li26  1  0.30842756  0.75000000  0.44540215  1
  Li  Li27  1  0.19157244  0.25000000  0.94540215  1
  Li  Li28  1  0.64585154  0.61135364  0.59478153  1
  Li  Li29  1  -0.14585154  -0.61135364  1.09478153  1
  Li  Li30  1  -0.64585154  1.11135364  -0.59478153  1
  Li  Li31  1  1.14585154  -0.11135364  -0.09478153  1
  Li  Li32  1  -0.64585154  -0.61135364  -0.59478153  1
  Li  Li33  1  1.14585154  0.61135364  -0.09478153  1
  Li  Li34  1  0.64585154  -0.11135364  0.59478153  1
  Li  Li35  1  -0.14585154  1.11135364  1.09478153  1
  Li  Li36  1  0.39093331  0.90751457  0.64011645  1
  Li  Li37  1  0.10906669  0.09248543  0.14011645  1
  Li  Li38  1  0.60906669  0.40751457  0.35988355  1
  Li  Li39  1  0.89093331  0.59248543  0.85988355  1
  Li  Li40  1  0.60906669  0.09248543  0.35988355  1
  Li  Li41  1  0.89093331  0.90751457  0.85988355  1
  Li  Li42  1  0.39093331  0.59248543  0.64011645  1
  Li  Li43  1  0.10906669  0.40751457  0.14011645  1
  Li  Li44  1  0.95822174  0.25000000  0.08374964  1
  Li  Li45  1  0.54177826  0.75000000  0.58374964  1
  Li  Li46  1  0.04177826  0.75000000  0.91625036  1
  Li  Li47  1  0.45822174  0.25000000  0.41625036  1
