# generated using pymatgen
data_LiF
_symmetry_space_group_name_H-M   'P 1'
_cell_length_a   8.46800739
_cell_length_b   16.02100092
_cell_length_c   6.29924201
_cell_angle_alpha   90.00000000
_cell_angle_beta   90.00000000
_cell_angle_gamma   90.00000000
_symmetry_Int_Tables_number   1
_chemical_formula_structural   LiF
_chemical_formula_sum   'Li30 F30'
_cell_volume   854.59267786
_cell_formula_units_Z   30
loop_
 _symmetry_equiv_pos_site_id
 _symmetry_equiv_pos_as_xyz
  1  'x, y, z'
loop_
 _atom_site_type_symbol
 _atom_site_label
 _atom_site_symmetry_multiplicity
 _atom_site_fract_x
 _atom_site_fract_y
 _atom_site_fract_z
 _atom_site_occupancy
  F  F0  1  0.00000000  0.50000000  0.50000000  1
  F  F1  1  0.50000000  -0.00000000  0.50000000  1
  F  F2  1  0.00000000  0.00000000  0.80585930  1
  F  F3  1  0.50000000  0.50000000  0.19414070  1
  F  F4  1  0.00000000  0.00000000  0.19414070  1
  F  F5  1  0.50000000  0.50000000  0.80585930  1
  F  F6  1  0.45459143  0.25891967  0.11884171  1
  F  F7  1  -0.45459143  -0.25891967  0.11884171  1
  F  F8  1  0.04540857  0.75891967  -0.11884171  1
  F  F9  1  0.95459143  0.24108033  -0.11884171  1
  F  F10  1  -0.45459143  -0.25891967  -0.11884171  1
  F  F11  1  0.45459143  0.25891967  -0.11884171  1
  F  F12  1  0.95459143  0.24108033  0.11884171  1
  F  F13  1  0.04540857  0.75891967  0.11884171  1
  F  F14  1  0.81486085  0.09080956  0.00000000  1
  F  F15  1  0.18513915  0.90919044  -0.00000000  1
  F  F16  1  0.68513915  0.59080956  -0.00000000  1
  F  F17  1  0.31486085  0.40919044  0.00000000  1
  F  F18  1  0.34364666  0.10583159  -0.00000000  1
  F  F19  1  0.65635334  0.89416841  -0.00000000  1
  F  F20  1  0.15635334  0.60583159  0.00000000  1
  F  F21  1  0.84364666  0.39416841  -0.00000000  1
  F  F22  1  0.41901264  0.72724666  0.15646486  1
  F  F23  1  0.58098736  0.27275334  0.15646486  1
  F  F24  1  0.08098736  0.22724666  0.84353514  1
  F  F25  1  0.91901264  0.77275334  0.84353514  1
  F  F26  1  0.58098736  0.27275334  0.84353514  1
  F  F27  1  0.41901264  0.72724666  0.84353514  1
  F  F28  1  0.91901264  0.77275334  0.15646486  1
  F  F29  1  0.08098736  0.22724666  0.15646486  1
  Li  Li30  1  0.37442371  0.20892062  0.63984198  1
  Li  Li31  1  0.62557629  0.79107938  0.63984198  1
  Li  Li32  1  0.12557629  0.70892062  0.36015802  1
  Li  Li33  1  0.87442371  0.29107938  0.36015802  1
  Li  Li34  1  0.62557629  0.79107938  0.36015802  1
  Li  Li35  1  0.37442371  0.20892062  0.36015802  1
  Li  Li36  1  0.87442371  0.29107938  0.63984198  1
  Li  Li37  1  0.12557629  0.70892062  0.63984198  1
  Li  Li38  1  0.22194743  0.07610348  0.00000000  1
  Li  Li39  1  0.77805257  0.92389652  0.00000000  1
  Li  Li40  1  0.27805257  0.57610348  -0.00000000  1
  Li  Li41  1  0.72194743  0.42389652  0.00000000  1
  Li  Li42  1  0.95599956  0.06186369  0.50000000  1
  Li  Li43  1  0.04400044  0.93813631  0.50000000  1
  Li  Li44  1  0.54400044  0.56186369  0.50000000  1
  Li  Li45  1  0.45599956  0.43813631  0.50000000  1
  Li  Li46  1  0.56578295  0.81043793  0.00000000  1
  Li  Li47  1  0.43421705  0.18956207  -0.00000000  1
  Li  Li48  1  0.93421705  0.31043793  -0.00000000  1
  Li  Li49  1  0.06578295  0.68956207  -0.00000000  1
  Li  Li50  1  0.62017554  0.86862208  0.86675784  1
  Li  Li51  1  0.37982446  0.13137792  0.86675784  1
  Li  Li52  1  0.87982446  0.36862208  0.13324216  1
  Li  Li53  1  0.12017554  0.63137792  0.13324216  1
  Li  Li54  1  0.37982446  0.13137792  0.13324216  1
  Li  Li55  1  0.62017554  0.86862208  0.13324216  1
  Li  Li56  1  0.12017554  0.63137792  0.86675784  1
  Li  Li57  1  0.87982446  0.36862208  0.86675784  1
  Li  Li58  1  0.00000000  0.50000000  0.00000000  1
  Li  Li59  1  0.50000000  -0.00000000  -0.00000000  1
