# generated using pymatgen
data_LiF
_symmetry_space_group_name_H-M   'P 1'
_cell_length_a   6.78715508
_cell_length_b   11.92979085
_cell_length_c   7.87531116
_cell_angle_alpha   90.00000000
_cell_angle_beta   90.00000000
_cell_angle_gamma   90.00000000
_symmetry_Int_Tables_number   1
_chemical_formula_structural   LiF
_chemical_formula_sum   'Li24 F24'
_cell_volume   637.65875201
_cell_formula_units_Z   24
loop_
 _symmetry_equiv_pos_site_id
 _symmetry_equiv_pos_as_xyz
  1  'x, y, z'
loop_
 _atom_site_type_symbol
 _atom_site_label
 _atom_site_symmetry_multiplicity
 _atom_site_fract_x
 _atom_site_fract_y
 _atom_site_fract_z
 _atom_site_occupancy
  F  F0  1  0.61324222  0.25000000  0.42769357  1
  F  F1  1  0.88675778  0.75000000  0.92769357  1
  F  F2  1  0.38675778  0.75000000  0.57230643  1
  F  F3  1  0.11324222  0.25000000  0.07230643  1
  F  F4  1  0.00000000  0.00000000  0.00000000  1
  F  F5  1  0.50000000  0.00000000  0.50000000  1
  F  F6  1  0.00000000  0.50000000  0.00000000  1
  F  F7  1  0.50000000  0.50000000  0.50000000  1
  F  F8  1  0.36059552  0.10643070  0.26439824  1
  F  F9  1  0.13940448  0.89356930  0.76439824  1
  F  F10  1  0.63940448  0.60643070  0.73560176  1
  F  F11  1  0.86059552  0.39356930  0.23560176  1
  F  F12  1  0.63940448  0.89356930  0.73560176  1
  F  F13  1  0.86059552  0.10643070  0.23560176  1
  F  F14  1  0.36059552  0.39356930  0.26439824  1
  F  F15  1  0.13940448  0.60643070  0.76439824  1
  F  F16  1  0.23450312  0.96023044  0.45450659  1
  F  F17  1  0.26549688  0.03976956  0.95450659  1
  F  F18  1  0.76549688  0.46023044  0.54549341  1
  F  F19  1  0.73450312  0.53976956  0.04549341  1
  F  F20  1  0.76549688  0.03976956  0.54549341  1
  F  F21  1  0.73450312  0.96023044  0.04549341  1
  F  F22  1  0.23450312  0.53976956  0.45450659  1
  F  F23  1  0.26549688  0.46023044  0.95450659  1
  Li  Li24  1  0.75971268  0.98750698  0.66138550  1
  Li  Li25  1  -0.25971268  -0.98750698  1.16138550  1
  Li  Li26  1  -0.75971268  1.48750698  -0.66138550  1
  Li  Li27  1  1.25971268  -0.48750698  -0.16138550  1
  Li  Li28  1  -0.75971268  -0.98750698  -0.66138550  1
  Li  Li29  1  1.25971268  0.98750698  -0.16138550  1
  Li  Li30  1  0.75971268  -0.48750698  0.66138550  1
  Li  Li31  1  -0.25971268  1.48750698  1.16138550  1
  Li  Li32  1  0.93214603  0.94523345  0.69160590  1
  Li  Li33  1  0.56785397  0.05476655  0.19160590  1
  Li  Li34  1  0.06785397  0.44523345  0.30839410  1
  Li  Li35  1  0.43214603  0.55476655  0.80839410  1
  Li  Li36  1  0.06785397  0.05476655  0.30839410  1
  Li  Li37  1  0.43214603  0.94523345  0.80839410  1
  Li  Li38  1  0.93214603  0.55476655  0.69160590  1
  Li  Li39  1  0.56785397  0.44523345  0.19160590  1
  Li  Li40  1  0.85613170  0.09253740  0.36429782  1
  Li  Li41  1  0.64386830  0.90746260  0.86429782  1
  Li  Li42  1  0.14386830  0.59253740  0.63570218  1
  Li  Li43  1  0.35613170  0.40746260  0.13570218  1
  Li  Li44  1  0.14386830  0.90746260  0.63570218  1
  Li  Li45  1  0.35613170  0.09253740  0.13570218  1
  Li  Li46  1  0.85613170  0.40746260  0.36429782  1
  Li  Li47  1  0.64386830  0.59253740  0.86429782  1
