# generated using pymatgen
data_Li2Si4Te3F12
_symmetry_space_group_name_H-M   'P 1'
_cell_length_a   9.77437130
_cell_length_b   9.77437130
_cell_length_c   16.60347599
_cell_angle_alpha   90.00000000
_cell_angle_beta   90.00000000
_cell_angle_gamma   120.00000000
_symmetry_Int_Tables_number   1
_chemical_formula_structural   Li2Si4Te3F12
_chemical_formula_sum   'Li8 Si16 Te12 F48'
_cell_volume   1373.74876623
_cell_formula_units_Z   4
loop_
 _symmetry_equiv_pos_site_id
 _symmetry_equiv_pos_as_xyz
  1  'x, y, z'
loop_
 _atom_site_type_symbol
 _atom_site_label
 _atom_site_symmetry_multiplicity
 _atom_site_fract_x
 _atom_site_fract_y
 _atom_site_fract_z
 _atom_site_occupancy
  F  F0  1  0.33333333  0.66666667  0.25000000  1
  F  F1  1  0.66666667  0.33333333  0.75000000  1
  F  F2  1  0.56749660  0.14186336  0.25000000  1
  F  F3  1  0.85813664  0.42563324  0.25000000  1
  F  F4  1  0.57436676  0.43250340  0.25000000  1
  F  F5  1  0.43250340  0.85813664  0.75000000  1
  F  F6  1  0.14186336  0.57436676  0.75000000  1
  F  F7  1  0.42563324  0.56749660  0.75000000  1
  F  F8  1  0.99853239  0.05868647  0.07000309  1
  F  F9  1  0.94131353  0.93984593  0.07000309  1
  F  F10  1  0.06015407  0.00146761  0.07000309  1
  F  F11  1  0.00146761  0.94131353  0.57000309  1
  F  F12  1  0.05868647  0.06015407  0.57000309  1
  F  F13  1  0.93984593  0.99853239  0.57000309  1
  F  F14  1  0.00146761  0.94131353  0.92999691  1
  F  F15  1  0.05868647  0.06015407  0.92999691  1
  F  F16  1  0.93984593  0.99853239  0.92999691  1
  F  F17  1  0.99853239  0.05868647  0.42999691  1
  F  F18  1  0.94131353  0.93984593  0.42999691  1
  F  F19  1  0.06015407  0.00146761  0.42999691  1
  F  F20  1  0.79530320  0.10093018  0.63468057  1
  F  F21  1  0.89906982  0.69437303  0.63468057  1
  F  F22  1  0.30562697  0.20469680  0.63468057  1
  F  F23  1  0.20469680  0.89906982  0.13468057  1
  F  F24  1  0.10093018  0.30562697  0.13468057  1
  F  F25  1  0.69437303  0.79530320  0.13468057  1
  F  F26  1  0.20469680  0.89906982  0.36531943  1
  F  F27  1  0.10093018  0.30562697  0.36531943  1
  F  F28  1  0.69437303  0.79530320  0.36531943  1
  F  F29  1  0.79530320  0.10093018  0.86531943  1
  F  F30  1  0.89906982  0.69437303  0.86531943  1
  F  F31  1  0.30562697  0.20469680  0.86531943  1
  F  F32  1  0.14861502  0.23595369  0.46726089  1
  F  F33  1  0.76404631  0.91266133  0.46726089  1
  F  F34  1  0.08733867  0.85138498  0.46726089  1
  F  F35  1  0.85138498  0.76404631  0.96726089  1
  F  F36  1  0.23595369  0.08733867  0.96726089  1
  F  F37  1  0.91266133  0.14861502  0.96726089  1
  F  F38  1  0.85138498  0.76404631  0.53273911  1
  F  F39  1  0.23595369  0.08733867  0.53273911  1
  F  F40  1  0.91266133  0.14861502  0.53273911  1
  F  F41  1  0.14861502  0.23595369  0.03273911  1
  F  F42  1  0.76404631  0.91266133  0.03273911  1
  F  F43  1  0.08733867  0.85138498  0.03273911  1
  F  F44  1  0.33333333  0.66666667  0.47754689  1
  F  F45  1  0.66666667  0.33333333  0.97754689  1
  F  F46  1  0.66666667  0.33333333  0.52245311  1
  F  F47  1  0.33333333  0.66666667  0.02245311  1
  Li  Li48  1  0.50000000  0.00000000  0.00000000  1
  Li  Li49  1  0.00000000  0.50000000  0.00000000  1
  Li  Li50  1  0.50000000  0.50000000  0.00000000  1
  Li  Li51  1  0.50000000  0.00000000  0.50000000  1
  Li  Li52  1  0.00000000  0.50000000  0.50000000  1
  Li  Li53  1  0.50000000  0.50000000  0.50000000  1
  Li  Li54  1  0.66666667  0.33333333  0.25000000  1
  Li  Li55  1  0.33333333  0.66666667  0.75000000  1
  Si  Si56  1  0.00000000  0.00000000  0.00000000  1
  Si  Si57  1  0.00000000  0.00000000  0.50000000  1
  Si  Si58  1  0.00000000  0.00000000  0.25000000  1
  Si  Si59  1  0.00000000  0.00000000  0.75000000  1
  Si  Si60  1  0.77314566  0.29521395  0.41234546  1
  Si  Si61  1  -0.29521395  0.47793171  0.41234546  1
  Si  Si62  1  -0.47793171  -0.77314566  0.41234546  1
  Si  Si63  1  -0.77314566  -0.29521395  0.91234546  1
  Si  Si64  1  0.29521395  -0.47793171  0.91234546  1
  Si  Si65  1  0.47793171  0.77314566  0.91234546  1
  Si  Si66  1  -0.77314566  -0.29521395  -0.41234546  1
  Si  Si67  1  0.29521395  -0.47793171  -0.41234546  1
  Si  Si68  1  0.47793171  0.77314566  -0.41234546  1
  Si  Si69  1  0.77314566  0.29521395  0.08765454  1
  Si  Si70  1  -0.29521395  0.47793171  0.08765454  1
  Si  Si71  1  -0.47793171  -0.77314566  0.08765454  1
  Te  Te72  1  0.23113180  0.17950640  0.13652301  1
  Te  Te73  1  0.82049360  0.05162540  0.13652301  1
  Te  Te74  1  0.94837460  0.76886820  0.13652301  1
  Te  Te75  1  0.76886820  0.82049360  0.63652301  1
  Te  Te76  1  0.17950640  0.94837460  0.63652301  1
  Te  Te77  1  0.05162540  0.23113180  0.63652301  1
  Te  Te78  1  0.76886820  0.82049360  0.86347699  1
  Te  Te79  1  0.17950640  0.94837460  0.86347699  1
  Te  Te80  1  0.05162540  0.23113180  0.86347699  1
  Te  Te81  1  0.23113180  0.17950640  0.36347699  1
  Te  Te82  1  0.82049360  0.05162540  0.36347699  1
  Te  Te83  1  0.94837460  0.76886820  0.36347699  1
