# generated using pymatgen
data_LiF
_symmetry_space_group_name_H-M   'P 1'
_cell_length_a   7.94692884
_cell_length_b   7.89815942
_cell_length_c   10.25159821
_cell_angle_alpha   90.00000000
_cell_angle_beta   90.00000000
_cell_angle_gamma   90.00000000
_symmetry_Int_Tables_number   1
_chemical_formula_structural   LiF
_chemical_formula_sum   'Li24 F24'
_cell_volume   643.45295008
_cell_formula_units_Z   24
loop_
 _symmetry_equiv_pos_site_id
 _symmetry_equiv_pos_as_xyz
  1  'x, y, z'
loop_
 _atom_site_type_symbol
 _atom_site_label
 _atom_site_symmetry_multiplicity
 _atom_site_fract_x
 _atom_site_fract_y
 _atom_site_fract_z
 _atom_site_occupancy
  F  F0  1  0.27678990  0.25000000  0.93851834  1
  F  F1  1  0.22321010  0.75000000  0.43851834  1
  F  F2  1  0.72321010  0.75000000  0.06148166  1
  F  F3  1  0.77678990  0.25000000  0.56148166  1
  F  F4  1  0.86419147  0.18407135  0.78473719  1
  F  F5  1  0.63580853  0.81592865  0.28473719  1
  F  F6  1  0.13580853  0.68407135  0.21526281  1
  F  F7  1  0.36419147  0.31592865  0.71526281  1
  F  F8  1  0.13580853  0.81592865  0.21526281  1
  F  F9  1  0.36419147  0.18407135  0.71526281  1
  F  F10  1  0.86419147  0.31592865  0.78473719  1
  F  F11  1  0.63580853  0.68407135  0.28473719  1
  F  F12  1  0.71811825  0.59335959  0.10870806  1
  F  F13  1  0.78188175  0.40664041  0.60870806  1
  F  F14  1  0.28188175  0.09335959  0.89129194  1
  F  F15  1  0.21811825  0.90664041  0.39129194  1
  F  F16  1  0.28188175  0.40664041  0.89129194  1
  F  F17  1  0.21811825  0.59335959  0.39129194  1
  F  F18  1  0.71811825  0.90664041  0.10870806  1
  F  F19  1  0.78188175  0.09335959  0.60870806  1
  F  F20  1  0.12900780  0.25000000  0.86199954  1
  F  F21  1  0.37099220  0.75000000  0.36199954  1
  F  F22  1  0.87099220  0.75000000  0.13800046  1
  F  F23  1  0.62900780  0.25000000  0.63800046  1
  Li  Li24  1  0.00000000  0.00000000  0.00000000  1
  Li  Li25  1  0.50000000  0.00000000  0.50000000  1
  Li  Li26  1  0.00000000  0.50000000  0.00000000  1
  Li  Li27  1  0.50000000  0.50000000  0.50000000  1
  Li  Li28  1  0.00000000  0.00000000  0.50000000  1
  Li  Li29  1  0.50000000  0.00000000  0.00000000  1
  Li  Li30  1  0.00000000  0.50000000  0.50000000  1
  Li  Li31  1  0.50000000  0.50000000  0.00000000  1
  Li  Li32  1  0.94635770  0.12019668  0.15795719  1
  Li  Li33  1  -0.44635770  -0.12019668  0.65795719  1
  Li  Li34  1  -0.94635770  0.62019668  -0.15795719  1
  Li  Li35  1  1.44635770  0.37980332  0.34204281  1
  Li  Li36  1  -0.94635770  -0.12019668  -0.15795719  1
  Li  Li37  1  1.44635770  0.12019668  0.34204281  1
  Li  Li38  1  0.94635770  0.37980332  0.15795719  1
  Li  Li39  1  -0.44635770  0.62019668  0.65795719  1
  Li  Li40  1  0.97631104  0.59176938  0.23246337  1
  Li  Li41  1  0.52368896  0.40823062  0.73246337  1
  Li  Li42  1  0.02368896  0.09176938  0.76753663  1
  Li  Li43  1  0.47631104  0.90823062  0.26753663  1
  Li  Li44  1  0.02368896  0.40823062  0.76753663  1
  Li  Li45  1  0.47631104  0.59176938  0.26753663  1
  Li  Li46  1  0.97631104  0.90823062  0.23246337  1
  Li  Li47  1  0.52368896  0.09176938  0.73246337  1
