# generated using pymatgen
data_LiF
_symmetry_space_group_name_H-M   'P 1'
_cell_length_a   11.37824244
_cell_length_b   6.04712800
_cell_length_c   9.42276462
_cell_angle_alpha   90.00000000
_cell_angle_beta   90.00000000
_cell_angle_gamma   90.00000000
_symmetry_Int_Tables_number   1
_chemical_formula_structural   LiF
_chemical_formula_sum   'Li24 F24'
_cell_volume   648.33980615
_cell_formula_units_Z   24
loop_
 _symmetry_equiv_pos_site_id
 _symmetry_equiv_pos_as_xyz
  1  'x, y, z'
loop_
 _atom_site_type_symbol
 _atom_site_label
 _atom_site_symmetry_multiplicity
 _atom_site_fract_x
 _atom_site_fract_y
 _atom_site_fract_z
 _atom_site_occupancy
  F  F0  1  0.18260865  0.65481627  0.44941002  1
  F  F1  1  0.81739135  0.34518373  0.44941002  1
  F  F2  1  0.31739135  0.15481627  0.55058998  1
  F  F3  1  0.68260865  0.84518373  0.55058998  1
  F  F4  1  0.81739135  0.34518373  0.55058998  1
  F  F5  1  0.18260865  0.65481627  0.55058998  1
  F  F6  1  0.68260865  0.84518373  0.44941002  1
  F  F7  1  0.31739135  0.15481627  0.44941002  1
  F  F8  1  0.93729448  0.52715076  0.50000000  1
  F  F9  1  0.06270552  0.47284924  0.50000000  1
  F  F10  1  0.56270552  0.02715076  0.50000000  1
  F  F11  1  0.43729448  0.97284924  0.50000000  1
  F  F12  1  0.51655454  0.10037715  0.55034061  1
  F  F13  1  0.48344546  0.89962285  0.55034061  1
  F  F14  1  0.98344546  0.60037715  0.44965939  1
  F  F15  1  0.01655454  0.39962285  0.44965939  1
  F  F16  1  0.48344546  0.89962285  0.44965939  1
  F  F17  1  0.51655454  0.10037715  0.44965939  1
  F  F18  1  0.01655454  0.39962285  0.55034061  1
  F  F19  1  0.98344546  0.60037715  0.55034061  1
  F  F20  1  0.76853825  0.11472238  0.50000000  1
  F  F21  1  0.23146175  0.88527762  0.50000000  1
  F  F22  1  0.73146175  0.61472238  0.50000000  1
  F  F23  1  0.26853825  0.38527762  0.50000000  1
  Li  Li24  1  0.00000000  0.50000000  0.34061197  1
  Li  Li25  1  0.50000000  0.00000000  0.65938803  1
  Li  Li26  1  0.00000000  0.50000000  0.65938803  1
  Li  Li27  1  0.50000000  0.00000000  0.34061197  1
  Li  Li28  1  0.00000000  0.50000000  0.00000000  1
  Li  Li29  1  0.50000000  0.00000000  0.00000000  1
  Li  Li30  1  0.00000000  0.00000000  0.32119331  1
  Li  Li31  1  0.50000000  0.50000000  0.67880669  1
  Li  Li32  1  0.00000000  0.00000000  0.67880669  1
  Li  Li33  1  0.50000000  0.50000000  0.32119331  1
  Li  Li34  1  0.85969492  0.90948396  0.67806855  1
  Li  Li35  1  -0.85969492  -0.90948396  0.67806855  1
  Li  Li36  1  -0.35969492  1.40948396  -0.67806855  1
  Li  Li37  1  1.35969492  -0.40948396  -0.67806855  1
  Li  Li38  1  -0.85969492  -0.90948396  -0.67806855  1
  Li  Li39  1  0.85969492  0.90948396  -0.67806855  1
  Li  Li40  1  1.35969492  -0.40948396  0.67806855  1
  Li  Li41  1  -0.35969492  1.40948396  0.67806855  1
  Li  Li42  1  0.00000000  0.00000000  0.50000000  1
  Li  Li43  1  0.50000000  0.50000000  0.50000000  1
  Li  Li44  1  0.81456993  0.72098359  0.50000000  1
  Li  Li45  1  0.18543007  0.27901641  0.50000000  1
  Li  Li46  1  0.68543007  0.22098359  0.50000000  1
  Li  Li47  1  0.31456993  0.77901641  0.50000000  1
