# generated using pymatgen
data_LiF
_symmetry_space_group_name_H-M   'P 1'
_cell_length_a   9.57249634
_cell_length_b   5.84436672
_cell_length_c   14.40990221
_cell_angle_alpha   90.00000000
_cell_angle_beta   90.00000000
_cell_angle_gamma   90.00000000
_symmetry_Int_Tables_number   1
_chemical_formula_structural   LiF
_chemical_formula_sum   'Li24 F24'
_cell_volume   806.16455989
_cell_formula_units_Z   24
loop_
 _symmetry_equiv_pos_site_id
 _symmetry_equiv_pos_as_xyz
  1  'x, y, z'
loop_
 _atom_site_type_symbol
 _atom_site_label
 _atom_site_symmetry_multiplicity
 _atom_site_fract_x
 _atom_site_fract_y
 _atom_site_fract_z
 _atom_site_occupancy
  F  F0  1  0.67206805  0.68156239  0.50000000  1
  F  F1  1  0.32793195  0.31843761  0.50000000  1
  F  F2  1  0.82793195  0.18156239  0.50000000  1
  F  F3  1  0.17206805  0.81843761  0.50000000  1
  F  F4  1  0.74853066  0.71350369  0.70130560  1
  F  F5  1  0.25146934  0.28649631  0.70130560  1
  F  F6  1  0.75146934  0.21350369  0.29869440  1
  F  F7  1  0.24853066  0.78649631  0.29869440  1
  F  F8  1  0.25146934  0.28649631  0.29869440  1
  F  F9  1  0.74853066  0.71350369  0.29869440  1
  F  F10  1  0.24853066  0.78649631  0.70130560  1
  F  F11  1  0.75146934  0.21350369  0.70130560  1
  F  F12  1  0.40762078  0.44298476  0.41453304  1
  F  F13  1  0.59237922  0.55701524  0.41453304  1
  F  F14  1  0.09237922  0.94298476  0.58546696  1
  F  F15  1  0.90762078  0.05701524  0.58546696  1
  F  F16  1  0.59237922  0.55701524  0.58546696  1
  F  F17  1  0.40762078  0.44298476  0.58546696  1
  F  F18  1  0.90762078  0.05701524  0.41453304  1
  F  F19  1  0.09237922  0.94298476  0.41453304  1
  F  F20  1  0.00000000  0.00000000  0.00000000  1
  F  F21  1  0.50000000  0.50000000  0.00000000  1
  F  F22  1  0.00000000  0.00000000  0.50000000  1
  F  F23  1  0.50000000  0.50000000  0.50000000  1
  Li  Li24  1  0.93757730  0.88617850  0.25511366  1
  Li  Li25  1  -0.93757730  -0.88617850  0.25511366  1
  Li  Li26  1  -0.43757730  1.38617850  -0.25511366  1
  Li  Li27  1  1.43757730  -0.38617850  -0.25511366  1
  Li  Li28  1  -0.93757730  -0.88617850  -0.25511366  1
  Li  Li29  1  0.93757730  0.88617850  -0.25511366  1
  Li  Li30  1  1.43757730  -0.38617850  0.25511366  1
  Li  Li31  1  -0.43757730  1.38617850  0.25511366  1
  Li  Li32  1  0.00000000  0.50000000  0.00000000  1
  Li  Li33  1  0.50000000  -0.00000000  0.00000000  1
  Li  Li34  1  0.00000000  0.50000000  0.50000000  1
  Li  Li35  1  0.50000000  -0.00000000  0.50000000  1
  Li  Li36  1  0.00000000  0.50000000  0.89923810  1
  Li  Li37  1  0.50000000  -0.00000000  0.10076190  1
  Li  Li38  1  0.00000000  0.50000000  0.10076190  1
  Li  Li39  1  0.50000000  -0.00000000  0.89923810  1
  Li  Li40  1  0.00000000  0.50000000  0.33607704  1
  Li  Li41  1  0.50000000  -0.00000000  0.66392296  1
  Li  Li42  1  0.00000000  0.50000000  0.66392296  1
  Li  Li43  1  0.50000000  -0.00000000  0.33607704  1
  Li  Li44  1  0.20089826  0.59061863  0.50000000  1
  Li  Li45  1  0.79910174  0.40938137  0.50000000  1
  Li  Li46  1  0.29910174  0.09061863  0.50000000  1
  Li  Li47  1  0.70089826  0.90938137  0.50000000  1
