# generated using pymatgen
data_LiF
_symmetry_space_group_name_H-M   'P 1'
_cell_length_a   7.57424466
_cell_length_b   6.67712960
_cell_length_c   13.00574558
_cell_angle_alpha   90.00000000
_cell_angle_beta   90.00000000
_cell_angle_gamma   90.00000000
_symmetry_Int_Tables_number   1
_chemical_formula_structural   LiF
_chemical_formula_sum   'Li16 F16'
_cell_volume   657.75534999
_cell_formula_units_Z   16
loop_
 _symmetry_equiv_pos_site_id
 _symmetry_equiv_pos_as_xyz
  1  'x, y, z'
loop_
 _atom_site_type_symbol
 _atom_site_label
 _atom_site_symmetry_multiplicity
 _atom_site_fract_x
 _atom_site_fract_y
 _atom_site_fract_z
 _atom_site_occupancy
  F  F0  1  0.68455370  0.25000000  0.53533911  1
  F  F1  1  0.81544630  0.75000000  0.03533911  1
  F  F2  1  0.31544630  0.75000000  0.46466089  1
  F  F3  1  0.18455370  0.25000000  0.96466089  1
  F  F4  1  0.03258393  0.62715304  0.83029311  1
  F  F5  1  0.46741607  0.37284696  0.33029311  1
  F  F6  1  0.96741607  0.12715304  0.16970689  1
  F  F7  1  0.53258393  0.87284696  0.66970689  1
  F  F8  1  0.96741607  0.37284696  0.16970689  1
  F  F9  1  0.53258393  0.62715304  0.66970689  1
  F  F10  1  0.03258393  0.87284696  0.83029311  1
  F  F11  1  0.46741607  0.12715304  0.33029311  1
  F  F12  1  0.84317435  0.25000000  0.22784518  1
  F  F13  1  0.65682565  0.75000000  0.72784518  1
  F  F14  1  0.15682565  0.75000000  0.77215482  1
  F  F15  1  0.34317435  0.25000000  0.27215482  1
  Li  Li16  1  0.73655649  0.25000000  0.98600386  1
  Li  Li17  1  0.76344351  0.75000000  0.48600386  1
  Li  Li18  1  0.26344351  0.75000000  0.01399614  1
  Li  Li19  1  0.23655649  0.25000000  0.51399614  1
  Li  Li20  1  0.45125809  0.84586152  0.79461275  1
  Li  Li21  1  0.04874191  -0.84586152  1.29461275  1
  Li  Li22  1  -0.45125809  1.34586152  -0.79461275  1
  Li  Li23  1  0.95125809  -0.34586152  -0.29461275  1
  Li  Li24  1  -0.45125809  -0.84586152  -0.79461275  1
  Li  Li25  1  0.95125809  0.84586152  -0.29461275  1
  Li  Li26  1  0.45125809  -0.34586152  0.79461275  1
  Li  Li27  1  0.04874191  1.34586152  1.29461275  1
  Li  Li28  1  0.00000000  0.00000000  0.50000000  1
  Li  Li29  1  0.50000000  0.00000000  0.00000000  1
  Li  Li30  1  0.00000000  0.50000000  0.50000000  1
  Li  Li31  1  0.50000000  0.50000000  0.00000000  1
