# generated using pymatgen
data_LiF
_symmetry_space_group_name_H-M   'P 1'
_cell_length_a   8.19003697
_cell_length_b   8.19003697
_cell_length_c   11.61126507
_cell_angle_alpha   90.00000000
_cell_angle_beta   90.00000000
_cell_angle_gamma   120.00000000
_symmetry_Int_Tables_number   1
_chemical_formula_structural   LiF
_chemical_formula_sum   'Li20 F20'
_cell_volume   674.49990962
_cell_formula_units_Z   20
loop_
 _symmetry_equiv_pos_site_id
 _symmetry_equiv_pos_as_xyz
  1  'x, y, z'
loop_
 _atom_site_type_symbol
 _atom_site_label
 _atom_site_symmetry_multiplicity
 _atom_site_fract_x
 _atom_site_fract_y
 _atom_site_fract_z
 _atom_site_occupancy
  F  F0  1  0.31623403  0.41781090  0.25000000  1
  F  F1  1  0.58218910  0.89842314  0.25000000  1
  F  F2  1  0.10157686  0.68376597  0.25000000  1
  F  F3  1  0.68376597  0.58218910  0.75000000  1
  F  F4  1  0.41781090  0.10157686  0.75000000  1
  F  F5  1  0.89842314  0.31623403  0.75000000  1
  F  F6  1  0.78067238  0.88346523  0.85647464  1
  F  F7  1  -0.88346523  -0.10279286  0.85647464  1
  F  F8  1  0.10279286  -0.78067238  0.85647464  1
  F  F9  1  -0.78067238  -0.88346523  1.35647464  1
  F  F10  1  0.88346523  0.10279286  1.35647464  1
  F  F11  1  -0.10279286  0.78067238  1.35647464  1
  F  F12  1  -0.78067238  -0.88346523  -0.85647464  1
  F  F13  1  0.88346523  0.10279286  -0.85647464  1
  F  F14  1  -0.10279286  0.78067238  -0.85647464  1
  F  F15  1  0.78067238  0.88346523  -0.35647464  1
  F  F16  1  -0.88346523  -0.10279286  -0.35647464  1
  F  F17  1  0.10279286  -0.78067238  -0.35647464  1
  F  F18  1  0.00000000  0.00000000  0.25000000  1
  F  F19  1  0.00000000  0.00000000  0.75000000  1
  Li  Li20  1  0.33333333  0.66666667  0.25000000  1
  Li  Li21  1  0.66666667  0.33333333  0.75000000  1
  Li  Li22  1  0.45912035  0.24432027  0.57137774  1
  Li  Li23  1  0.75567973  0.21480007  0.57137774  1
  Li  Li24  1  0.78519993  0.54087965  0.57137774  1
  Li  Li25  1  0.54087965  0.75567973  0.07137774  1
  Li  Li26  1  0.24432027  0.78519993  0.07137774  1
  Li  Li27  1  0.21480007  0.45912035  0.07137774  1
  Li  Li28  1  0.54087965  0.75567973  0.42862226  1
  Li  Li29  1  0.24432027  0.78519993  0.42862226  1
  Li  Li30  1  0.21480007  0.45912035  0.42862226  1
  Li  Li31  1  0.45912035  0.24432027  0.92862226  1
  Li  Li32  1  0.75567973  0.21480007  0.92862226  1
  Li  Li33  1  0.78519993  0.54087965  0.92862226  1
  Li  Li34  1  0.50000000  0.00000000  0.00000000  1
  Li  Li35  1  0.00000000  0.50000000  0.00000000  1
  Li  Li36  1  0.50000000  0.50000000  0.00000000  1
  Li  Li37  1  0.50000000  0.00000000  0.50000000  1
  Li  Li38  1  0.00000000  0.50000000  0.50000000  1
  Li  Li39  1  0.50000000  0.50000000  0.50000000  1
