# generated using pymatgen
data_LiF
_symmetry_space_group_name_H-M   'P 1'
_cell_length_a   8.86624238
_cell_length_b   6.75319724
_cell_length_c   12.13998343
_cell_angle_alpha   90.00000000
_cell_angle_beta   90.00000000
_cell_angle_gamma   90.00000000
_symmetry_Int_Tables_number   1
_chemical_formula_structural   LiF
_chemical_formula_sum   'Li24 F24'
_cell_volume   726.88737826
_cell_formula_units_Z   24
loop_
 _symmetry_equiv_pos_site_id
 _symmetry_equiv_pos_as_xyz
  1  'x, y, z'
loop_
 _atom_site_type_symbol
 _atom_site_label
 _atom_site_symmetry_multiplicity
 _atom_site_fract_x
 _atom_site_fract_y
 _atom_site_fract_z
 _atom_site_occupancy
  F  F0  1  0.00000000  0.00000000  0.00000000  1
  F  F1  1  0.50000000  0.50000000  -0.00000000  1
  F  F2  1  0.00000000  0.00000000  0.50000000  1
  F  F3  1  0.50000000  0.50000000  0.50000000  1
  F  F4  1  0.00000000  0.00000000  0.10499272  1
  F  F5  1  0.50000000  0.50000000  0.89500728  1
  F  F6  1  0.00000000  0.00000000  0.89500728  1
  F  F7  1  0.50000000  0.50000000  0.10499272  1
  F  F8  1  0.88351193  0.25320515  0.83619131  1
  F  F9  1  0.11648807  0.74679485  0.83619131  1
  F  F10  1  0.61648807  0.75320515  0.16380869  1
  F  F11  1  0.38351193  0.24679485  0.16380869  1
  F  F12  1  0.11648807  0.74679485  0.16380869  1
  F  F13  1  0.88351193  0.25320515  0.16380869  1
  F  F14  1  0.38351193  0.24679485  0.83619131  1
  F  F15  1  0.61648807  0.75320515  0.83619131  1
  F  F16  1  0.58381845  0.13817108  0.24504595  1
  F  F17  1  0.41618155  0.86182892  0.24504595  1
  F  F18  1  0.91618155  0.63817108  0.75495405  1
  F  F19  1  0.08381845  0.36182892  0.75495405  1
  F  F20  1  0.41618155  0.86182892  0.75495405  1
  F  F21  1  0.58381845  0.13817108  0.75495405  1
  F  F22  1  0.08381845  0.36182892  0.24504595  1
  F  F23  1  0.91618155  0.63817108  0.24504595  1
  Li  Li24  1  0.91262616  0.96663621  0.16509580  1
  Li  Li25  1  -0.91262616  -0.96663621  0.16509580  1
  Li  Li26  1  -0.41262616  1.46663621  -0.16509580  1
  Li  Li27  1  1.41262616  -0.46663621  -0.16509580  1
  Li  Li28  1  -0.91262616  -0.96663621  -0.16509580  1
  Li  Li29  1  0.91262616  0.96663621  -0.16509580  1
  Li  Li30  1  1.41262616  -0.46663621  0.16509580  1
  Li  Li31  1  -0.41262616  1.46663621  0.16509580  1
  Li  Li32  1  0.00000000  0.50000000  0.71237104  1
  Li  Li33  1  0.50000000  0.00000000  0.28762896  1
  Li  Li34  1  0.00000000  0.50000000  0.28762896  1
  Li  Li35  1  0.50000000  0.00000000  0.71237104  1
  Li  Li36  1  0.00000000  0.50000000  0.50000000  1
  Li  Li37  1  0.50000000  0.00000000  0.50000000  1
  Li  Li38  1  0.00000000  0.00000000  0.74685477  1
  Li  Li39  1  0.50000000  0.50000000  0.25314523  1
  Li  Li40  1  0.00000000  0.00000000  0.25314523  1
  Li  Li41  1  0.50000000  0.50000000  0.74685477  1
  Li  Li42  1  0.65354816  0.42279117  0.50000000  1
  Li  Li43  1  0.34645184  0.57720883  0.50000000  1
  Li  Li44  1  0.84645184  0.92279117  0.50000000  1
  Li  Li45  1  0.15354816  0.07720883  0.50000000  1
  Li  Li46  1  0.00000000  0.50000000  0.00000000  1
  Li  Li47  1  0.50000000  0.00000000  0.00000000  1
