# generated using pymatgen
data_LiF
_symmetry_space_group_name_H-M   'P 1'
_cell_length_a   7.06249786
_cell_length_b   6.74045561
_cell_length_c   8.87529428
_cell_angle_alpha   90.00000000
_cell_angle_beta   90.00000000
_cell_angle_gamma   90.00000000
_symmetry_Int_Tables_number   1
_chemical_formula_structural   LiF
_chemical_formula_sum   'Li28 F28'
_cell_volume   422.50353203
_cell_formula_units_Z   28
loop_
 _symmetry_equiv_pos_site_id
 _symmetry_equiv_pos_as_xyz
  1  'x, y, z'
loop_
 _atom_site_type_symbol
 _atom_site_label
 _atom_site_symmetry_multiplicity
 _atom_site_fract_x
 _atom_site_fract_y
 _atom_site_fract_z
 _atom_site_occupancy
  F  F0  1  0.56879129  0.58650882  0.82938634  1
  F  F1  1  0.93120871  0.41349118  0.32938634  1
  F  F2  1  0.43120871  0.08650882  0.17061366  1
  F  F3  1  0.06879129  0.91349118  0.67061366  1
  F  F4  1  0.43120871  0.41349118  0.17061366  1
  F  F5  1  0.06879129  0.58650882  0.67061366  1
  F  F6  1  0.56879129  0.91349118  0.82938634  1
  F  F7  1  0.93120871  0.08650882  0.32938634  1
  F  F8  1  0.65793531  0.15307466  0.17958685  1
  F  F9  1  0.84206469  0.84692534  0.67958685  1
  F  F10  1  0.34206469  0.65307466  0.82041315  1
  F  F11  1  0.15793531  0.34692534  0.32041315  1
  F  F12  1  0.34206469  0.84692534  0.82041315  1
  F  F13  1  0.15793531  0.15307466  0.32041315  1
  F  F14  1  0.65793531  0.34692534  0.17958685  1
  F  F15  1  0.84206469  0.65307466  0.67958685  1
  F  F16  1  0.09070051  0.65438395  0.15014313  1
  F  F17  1  0.40929949  0.34561605  0.65014313  1
  F  F18  1  0.90929949  0.15438395  0.84985687  1
  F  F19  1  0.59070051  0.84561605  0.34985687  1
  F  F20  1  0.90929949  0.34561605  0.84985687  1
  F  F21  1  0.59070051  0.65438395  0.34985687  1
  F  F22  1  0.09070051  0.84561605  0.15014313  1
  F  F23  1  0.40929949  0.15438395  0.65014313  1
  F  F24  1  0.00000000  0.00000000  0.00000000  1
  F  F25  1  0.50000000  0.00000000  0.50000000  1
  F  F26  1  0.00000000  0.50000000  0.00000000  1
  F  F27  1  0.50000000  0.50000000  0.50000000  1
  Li  Li28  1  0.31930883  0.25000000  0.77409864  1
  Li  Li29  1  0.18069117  0.75000000  0.27409864  1
  Li  Li30  1  0.68069117  0.75000000  0.22590136  1
  Li  Li31  1  0.81930883  0.25000000  0.72590136  1
  Li  Li32  1  0.16604379  0.25000000  0.40574581  1
  Li  Li33  1  0.33395621  0.75000000  0.90574581  1
  Li  Li34  1  0.83395621  0.75000000  0.59425419  1
  Li  Li35  1  0.66604379  0.25000000  0.09425419  1
  Li  Li36  1  0.21437400  0.61838165  0.64911855  1
  Li  Li37  1  0.28562600  -0.61838165  1.14911855  1
  Li  Li38  1  -0.21437400  1.11838165  -0.64911855  1
  Li  Li39  1  0.71437400  -0.11838165  -0.14911855  1
  Li  Li40  1  -0.21437400  -0.61838165  -0.64911855  1
  Li  Li41  1  0.71437400  0.61838165  -0.14911855  1
  Li  Li42  1  0.21437400  -0.11838165  0.64911855  1
  Li  Li43  1  0.28562600  1.11838165  1.14911855  1
  Li  Li44  1  0.17045976  0.39563999  0.85443746  1
  Li  Li45  1  0.32954024  0.60436001  0.35443746  1
  Li  Li46  1  0.82954024  0.89563999  0.14556254  1
  Li  Li47  1  0.67045976  0.10436001  0.64556254  1
  Li  Li48  1  0.82954024  0.60436001  0.14556254  1
  Li  Li49  1  0.67045976  0.39563999  0.64556254  1
  Li  Li50  1  0.17045976  0.10436001  0.85443746  1
  Li  Li51  1  0.32954024  0.89563999  0.35443746  1
  Li  Li52  1  0.29772728  0.25000000  0.95137553  1
  Li  Li53  1  0.20227272  0.75000000  0.45137553  1
  Li  Li54  1  0.70227272  0.75000000  0.04862447  1
  Li  Li55  1  0.79772728  0.25000000  0.54862447  1
