# generated using pymatgen
data_LiF
_symmetry_space_group_name_H-M   'P 1'
_cell_length_a   11.48076047
_cell_length_b   14.32387360
_cell_length_c   4.67292650
_cell_angle_alpha   90.00000000
_cell_angle_beta   90.00000000
_cell_angle_gamma   90.00000000
_symmetry_Int_Tables_number   1
_chemical_formula_structural   LiF
_chemical_formula_sum   'Li24 F24'
_cell_volume   768.45791213
_cell_formula_units_Z   24
loop_
 _symmetry_equiv_pos_site_id
 _symmetry_equiv_pos_as_xyz
  1  'x, y, z'
loop_
 _atom_site_type_symbol
 _atom_site_label
 _atom_site_symmetry_multiplicity
 _atom_site_fract_x
 _atom_site_fract_y
 _atom_site_fract_z
 _atom_site_occupancy
  F  F0  1  0.49097684  0.85915997  0.60692459  1
  F  F1  1  0.00902316  0.14084003  0.10692459  1
  F  F2  1  0.50902316  0.35915997  0.39307541  1
  F  F3  1  0.99097684  0.64084003  0.89307541  1
  F  F4  1  0.50902316  0.14084003  0.39307541  1
  F  F5  1  0.99097684  0.85915997  0.89307541  1
  F  F6  1  0.49097684  0.64084003  0.60692459  1
  F  F7  1  0.00902316  0.35915997  0.10692459  1
  F  F8  1  0.00000000  0.00000000  0.50000000  1
  F  F9  1  0.50000000  0.00000000  0.00000000  1
  F  F10  1  0.00000000  0.50000000  0.50000000  1
  F  F11  1  0.50000000  0.50000000  0.00000000  1
  F  F12  1  0.33219671  0.88441163  0.75380876  1
  F  F13  1  0.16780329  0.11558837  0.25380876  1
  F  F14  1  0.66780329  0.38441163  0.24619124  1
  F  F15  1  0.83219671  0.61558837  0.74619124  1
  F  F16  1  0.66780329  0.11558837  0.24619124  1
  F  F17  1  0.83219671  0.88441163  0.74619124  1
  F  F18  1  0.33219671  0.61558837  0.75380876  1
  F  F19  1  0.16780329  0.38441163  0.25380876  1
  F  F20  1  0.00000000  0.00000000  0.00000000  1
  F  F21  1  0.50000000  0.00000000  0.50000000  1
  F  F22  1  0.00000000  0.50000000  0.00000000  1
  F  F23  1  0.50000000  0.50000000  0.50000000  1
  Li  Li24  1  0.81667640  0.05611663  0.26316971  1
  Li  Li25  1  -0.31667640  -0.05611663  0.76316971  1
  Li  Li26  1  -0.81667640  0.55611663  -0.26316971  1
  Li  Li27  1  1.31667640  0.44388337  0.23683029  1
  Li  Li28  1  -0.81667640  -0.05611663  -0.26316971  1
  Li  Li29  1  1.31667640  0.05611663  0.23683029  1
  Li  Li30  1  0.81667640  0.44388337  0.26316971  1
  Li  Li31  1  -0.31667640  0.55611663  0.76316971  1
  Li  Li32  1  0.63447491  0.47145531  0.05981860  1
  Li  Li33  1  0.86552509  0.52854469  0.55981860  1
  Li  Li34  1  0.36552509  0.97145531  0.94018140  1
  Li  Li35  1  0.13447491  0.02854469  0.44018140  1
  Li  Li36  1  0.36552509  0.52854469  0.94018140  1
  Li  Li37  1  0.13447491  0.47145531  0.44018140  1
  Li  Li38  1  0.63447491  0.02854469  0.05981860  1
  Li  Li39  1  0.86552509  0.97145531  0.55981860  1
  Li  Li40  1  0.48406332  0.58478555  0.85770800  1
  Li  Li41  1  0.01593668  0.41521445  0.35770800  1
  Li  Li42  1  0.51593668  0.08478555  0.14229200  1
  Li  Li43  1  0.98406332  0.91521445  0.64229200  1
  Li  Li44  1  0.51593668  0.41521445  0.14229200  1
  Li  Li45  1  0.98406332  0.58478555  0.64229200  1
  Li  Li46  1  0.48406332  0.91521445  0.85770800  1
  Li  Li47  1  0.01593668  0.08478555  0.35770800  1
