# generated using pymatgen
data_LiF
_symmetry_space_group_name_H-M   'P 1'
_cell_length_a   10.15837480
_cell_length_b   7.81620423
_cell_length_c   6.31030139
_cell_angle_alpha   90.00000000
_cell_angle_beta   90.00000000
_cell_angle_gamma   90.00000000
_symmetry_Int_Tables_number   1
_chemical_formula_structural   LiF
_chemical_formula_sum   'Li24 F24'
_cell_volume   501.03750224
_cell_formula_units_Z   24
loop_
 _symmetry_equiv_pos_site_id
 _symmetry_equiv_pos_as_xyz
  1  'x, y, z'
loop_
 _atom_site_type_symbol
 _atom_site_label
 _atom_site_symmetry_multiplicity
 _atom_site_fract_x
 _atom_site_fract_y
 _atom_site_fract_z
 _atom_site_occupancy
  F  F0  1  0.40573530  0.25000000  0.46405239  1
  F  F1  1  0.09426470  0.75000000  0.96405239  1
  F  F2  1  0.59426470  0.75000000  0.53594761  1
  F  F3  1  0.90573530  0.25000000  0.03594761  1
  F  F4  1  0.82454868  0.33836654  0.61786030  1
  F  F5  1  0.67545132  0.66163346  0.11786030  1
  F  F6  1  0.17545132  0.83836654  0.38213970  1
  F  F7  1  0.32454868  0.16163346  0.88213970  1
  F  F8  1  0.17545132  0.66163346  0.38213970  1
  F  F9  1  0.32454868  0.33836654  0.88213970  1
  F  F10  1  0.82454868  0.16163346  0.61786030  1
  F  F11  1  0.67545132  0.83836654  0.11786030  1
  F  F12  1  0.17330191  0.41238908  0.16561464  1
  F  F13  1  0.32669809  0.58761092  0.66561464  1
  F  F14  1  0.82669809  0.91238908  0.83438536  1
  F  F15  1  0.67330191  0.08761092  0.33438536  1
  F  F16  1  0.82669809  0.58761092  0.83438536  1
  F  F17  1  0.67330191  0.41238908  0.33438536  1
  F  F18  1  0.17330191  0.08761092  0.16561464  1
  F  F19  1  0.32669809  0.91238908  0.66561464  1
  F  F20  1  0.78821661  0.25000000  0.38422456  1
  F  F21  1  0.71178339  0.75000000  0.88422456  1
  F  F22  1  0.21178339  0.75000000  0.61577544  1
  F  F23  1  0.28821661  0.25000000  0.11577544  1
  Li  Li24  1  0.00000000  0.00000000  0.50000000  1
  Li  Li25  1  0.50000000  0.00000000  0.00000000  1
  Li  Li26  1  0.00000000  0.50000000  0.50000000  1
  Li  Li27  1  0.50000000  0.50000000  0.00000000  1
  Li  Li28  1  0.00000000  0.00000000  0.00000000  1
  Li  Li29  1  0.50000000  0.00000000  0.50000000  1
  Li  Li30  1  0.00000000  0.50000000  0.00000000  1
  Li  Li31  1  0.50000000  0.50000000  0.50000000  1
  Li  Li32  1  0.01261476  0.25000000  0.88192625  1
  Li  Li33  1  0.48738524  0.75000000  0.38192625  1
  Li  Li34  1  0.98738524  0.75000000  0.11807375  1
  Li  Li35  1  0.51261476  0.25000000  0.61807375  1
  Li  Li36  1  0.50920424  0.25000000  0.87194087  1
  Li  Li37  1  0.99079576  0.75000000  0.37194087  1
  Li  Li38  1  0.49079576  0.75000000  0.12805913  1
  Li  Li39  1  0.00920424  0.25000000  0.62805913  1
  Li  Li40  1  0.77513173  0.54836403  0.94815478  1
  Li  Li41  1  -0.27513173  -0.54836403  1.44815478  1
  Li  Li42  1  -0.77513173  1.04836403  -0.94815478  1
  Li  Li43  1  1.27513173  -0.04836403  -0.44815478  1
  Li  Li44  1  -0.77513173  -0.54836403  -0.94815478  1
  Li  Li45  1  1.27513173  0.54836403  -0.44815478  1
  Li  Li46  1  0.77513173  -0.04836403  0.94815478  1
  Li  Li47  1  -0.27513173  1.04836403  1.44815478  1
