# generated using pymatgen
data_LiF
_symmetry_space_group_name_H-M   'P 1'
_cell_length_a   5.91460440
_cell_length_b   11.46480061
_cell_length_c   7.98047680
_cell_angle_alpha   90.00000000
_cell_angle_beta   90.00000000
_cell_angle_gamma   90.00000000
_symmetry_Int_Tables_number   1
_chemical_formula_structural   LiF
_chemical_formula_sum   'Li24 F24'
_cell_volume   541.15421749
_cell_formula_units_Z   24
loop_
 _symmetry_equiv_pos_site_id
 _symmetry_equiv_pos_as_xyz
  1  'x, y, z'
loop_
 _atom_site_type_symbol
 _atom_site_label
 _atom_site_symmetry_multiplicity
 _atom_site_fract_x
 _atom_site_fract_y
 _atom_site_fract_z
 _atom_site_occupancy
  F  F0  1  0.96185922  0.71715829  0.30273083  1
  F  F1  1  0.53814078  0.28284171  0.80273083  1
  F  F2  1  0.03814078  0.21715829  0.69726917  1
  F  F3  1  0.46185922  0.78284171  0.19726917  1
  F  F4  1  0.03814078  0.28284171  0.69726917  1
  F  F5  1  0.46185922  0.71715829  0.19726917  1
  F  F6  1  0.96185922  0.78284171  0.30273083  1
  F  F7  1  0.53814078  0.21715829  0.80273083  1
  F  F8  1  0.66953804  0.43442000  0.46731976  1
  F  F9  1  0.83046196  0.56558000  0.96731976  1
  F  F10  1  0.33046196  0.93442000  0.53268024  1
  F  F11  1  0.16953804  0.06558000  0.03268024  1
  F  F12  1  0.33046196  0.56558000  0.53268024  1
  F  F13  1  0.16953804  0.43442000  0.03268024  1
  F  F14  1  0.66953804  0.06558000  0.46731976  1
  F  F15  1  0.83046196  0.93442000  0.96731976  1
  F  F16  1  0.33001566  0.69132128  0.25061225  1
  F  F17  1  0.16998434  0.30867872  0.75061225  1
  F  F18  1  0.66998434  0.19132128  0.74938775  1
  F  F19  1  0.83001566  0.80867872  0.24938775  1
  F  F20  1  0.66998434  0.30867872  0.74938775  1
  F  F21  1  0.83001566  0.69132128  0.24938775  1
  F  F22  1  0.33001566  0.80867872  0.25061225  1
  F  F23  1  0.16998434  0.19132128  0.75061225  1
  Li  Li24  1  0.37201584  0.25000000  0.90665469  1
  Li  Li25  1  0.12798416  0.75000000  0.40665469  1
  Li  Li26  1  0.62798416  0.75000000  0.09334531  1
  Li  Li27  1  0.87201584  0.25000000  0.59334531  1
  Li  Li28  1  0.78471473  0.14549784  0.22564562  1
  Li  Li29  1  -0.28471473  -0.14549784  0.72564562  1
  Li  Li30  1  -0.78471473  0.64549784  -0.22564562  1
  Li  Li31  1  1.28471473  0.35450216  0.27435438  1
  Li  Li32  1  -0.78471473  -0.14549784  -0.22564562  1
  Li  Li33  1  1.28471473  0.14549784  0.27435438  1
  Li  Li34  1  0.78471473  0.35450216  0.22564562  1
  Li  Li35  1  -0.28471473  0.64549784  0.72564562  1
  Li  Li36  1  0.28490285  0.14455060  0.97673333  1
  Li  Li37  1  0.21509715  0.85544940  0.47673333  1
  Li  Li38  1  0.71509715  0.64455060  0.02326667  1
  Li  Li39  1  0.78490285  0.35544940  0.52326667  1
  Li  Li40  1  0.71509715  0.85544940  0.02326667  1
  Li  Li41  1  0.78490285  0.14455060  0.52326667  1
  Li  Li42  1  0.28490285  0.35544940  0.97673333  1
  Li  Li43  1  0.21509715  0.64455060  0.47673333  1
  Li  Li44  1  0.00000000  0.00000000  0.50000000  1
  Li  Li45  1  0.50000000  0.00000000  0.00000000  1
  Li  Li46  1  0.00000000  0.50000000  0.50000000  1
  Li  Li47  1  0.50000000  0.50000000  -0.00000000  1
