# generated using pymatgen
data_LiF
_symmetry_space_group_name_H-M   'P 1'
_cell_length_a   5.79360967
_cell_length_b   10.60684069
_cell_length_c   9.17336767
_cell_angle_alpha   90.00000000
_cell_angle_beta   90.00000000
_cell_angle_gamma   90.00000000
_symmetry_Int_Tables_number   1
_chemical_formula_structural   LiF
_chemical_formula_sum   'Li24 F24'
_cell_volume   563.72082452
_cell_formula_units_Z   24
loop_
 _symmetry_equiv_pos_site_id
 _symmetry_equiv_pos_as_xyz
  1  'x, y, z'
loop_
 _atom_site_type_symbol
 _atom_site_label
 _atom_site_symmetry_multiplicity
 _atom_site_fract_x
 _atom_site_fract_y
 _atom_site_fract_z
 _atom_site_occupancy
  F  F0  1  0.60236470  0.25000000  0.43353951  1
  F  F1  1  0.89763530  0.75000000  0.93353951  1
  F  F2  1  0.39763530  0.75000000  0.56646049  1
  F  F3  1  0.10236470  0.25000000  0.06646049  1
  F  F4  1  0.19691400  0.39264176  0.15564517  1
  F  F5  1  0.30308600  0.60735824  0.65564517  1
  F  F6  1  0.80308600  0.89264176  0.84435483  1
  F  F7  1  0.69691400  0.10735824  0.34435483  1
  F  F8  1  0.80308600  0.60735824  0.84435483  1
  F  F9  1  0.69691400  0.39264176  0.34435483  1
  F  F10  1  0.19691400  0.10735824  0.15564517  1
  F  F11  1  0.30308600  0.89264176  0.65564517  1
  F  F12  1  0.59040314  0.92498450  0.87717546  1
  F  F13  1  0.90959686  0.07501550  0.37717546  1
  F  F14  1  0.40959686  0.42498450  0.12282454  1
  F  F15  1  0.09040314  0.57501550  0.62282454  1
  F  F16  1  0.40959686  0.07501550  0.12282454  1
  F  F17  1  0.09040314  0.92498450  0.62282454  1
  F  F18  1  0.59040314  0.57501550  0.87717546  1
  F  F19  1  0.90959686  0.42498450  0.37717546  1
  F  F20  1  0.23454845  0.25000000  0.08943141  1
  F  F21  1  0.26545155  0.75000000  0.58943141  1
  F  F22  1  0.76545155  0.75000000  0.91056859  1
  F  F23  1  0.73454845  0.25000000  0.41056859  1
  Li  Li24  1  0.00000000  0.00000000  0.50000000  1
  Li  Li25  1  0.50000000  0.00000000  0.00000000  1
  Li  Li26  1  0.00000000  0.50000000  0.50000000  1
  Li  Li27  1  0.50000000  0.50000000  0.00000000  1
  Li  Li28  1  0.46022042  0.86684035  0.45973790  1
  Li  Li29  1  0.03977958  -0.86684035  0.95973790  1
  Li  Li30  1  -0.46022042  1.36684035  -0.45973790  1
  Li  Li31  1  0.96022042  -0.36684035  0.04026210  1
  Li  Li32  1  -0.46022042  -0.86684035  -0.45973790  1
  Li  Li33  1  0.96022042  0.86684035  0.04026210  1
  Li  Li34  1  0.46022042  -0.36684035  0.45973790  1
  Li  Li35  1  0.03977958  1.36684035  0.95973790  1
  Li  Li36  1  0.00000000  0.00000000  0.00000000  1
  Li  Li37  1  0.50000000  0.00000000  0.50000000  1
  Li  Li38  1  0.00000000  0.50000000  0.00000000  1
  Li  Li39  1  0.50000000  0.50000000  0.50000000  1
  Li  Li40  1  0.54271797  0.13362396  0.34596070  1
  Li  Li41  1  0.95728203  0.86637604  0.84596070  1
  Li  Li42  1  0.45728203  0.63362396  0.65403930  1
  Li  Li43  1  0.04271797  0.36637604  0.15403930  1
  Li  Li44  1  0.45728203  0.86637604  0.65403930  1
  Li  Li45  1  0.04271797  0.13362396  0.15403930  1
  Li  Li46  1  0.54271797  0.36637604  0.34596070  1
  Li  Li47  1  0.95728203  0.63362396  0.84596070  1
