# generated using pymatgen
data_LiF
_symmetry_space_group_name_H-M   'P 1'
_cell_length_a   7.84580421
_cell_length_b   9.53614979
_cell_length_c   8.26626550
_cell_angle_alpha   90.00000000
_cell_angle_beta   90.00000000
_cell_angle_gamma   90.00000000
_symmetry_Int_Tables_number   1
_chemical_formula_structural   LiF
_chemical_formula_sum   'Li18 F18'
_cell_volume   618.47176893
_cell_formula_units_Z   18
loop_
 _symmetry_equiv_pos_site_id
 _symmetry_equiv_pos_as_xyz
  1  'x, y, z'
loop_
 _atom_site_type_symbol
 _atom_site_label
 _atom_site_symmetry_multiplicity
 _atom_site_fract_x
 _atom_site_fract_y
 _atom_site_fract_z
 _atom_site_occupancy
  F  F0  1  0.27406841  0.25520894  0.50000000  1
  F  F1  1  0.72593159  0.74479106  0.50000000  1
  F  F2  1  0.22593159  0.75520894  0.50000000  1
  F  F3  1  0.77406841  0.24479106  0.50000000  1
  F  F4  1  0.00000000  0.00000000  0.50000000  1
  F  F5  1  0.50000000  0.50000000  0.50000000  1
  F  F6  1  0.18154025  0.20891412  0.09245392  1
  F  F7  1  -0.18154025  -0.20891412  0.09245392  1
  F  F8  1  0.31845975  0.70891412  -0.09245392  1
  F  F9  1  0.68154025  0.29108588  -0.09245392  1
  F  F10  1  -0.18154025  -0.20891412  -0.09245392  1
  F  F11  1  0.18154025  0.20891412  -0.09245392  1
  F  F12  1  0.68154025  0.29108588  0.09245392  1
  F  F13  1  0.31845975  0.70891412  0.09245392  1
  F  F14  1  0.00000000  0.50000000  0.50000000  1
  F  F15  1  0.50000000  0.00000000  0.50000000  1
  F  F16  1  0.00000000  0.50000000  0.00000000  1
  F  F17  1  0.50000000  0.00000000  0.00000000  1
  Li  Li18  1  0.79187919  0.69422333  0.30545900  1
  Li  Li19  1  0.20812081  0.30577667  0.30545900  1
  Li  Li20  1  0.70812081  0.19422333  0.69454100  1
  Li  Li21  1  0.29187919  0.80577667  0.69454100  1
  Li  Li22  1  0.20812081  0.30577667  0.69454100  1
  Li  Li23  1  0.79187919  0.69422333  0.69454100  1
  Li  Li24  1  0.29187919  0.80577667  0.30545900  1
  Li  Li25  1  0.70812081  0.19422333  0.30545900  1
  Li  Li26  1  0.00000000  0.00000000  0.33360755  1
  Li  Li27  1  0.50000000  0.50000000  0.66639245  1
  Li  Li28  1  0.00000000  0.00000000  0.66639245  1
  Li  Li29  1  0.50000000  0.50000000  0.33360755  1
  Li  Li30  1  0.00000000  0.50000000  0.27589459  1
  Li  Li31  1  0.50000000  0.00000000  0.72410541  1
  Li  Li32  1  0.00000000  0.50000000  0.72410541  1
  Li  Li33  1  0.50000000  0.00000000  0.27589459  1
  Li  Li34  1  0.00000000  0.00000000  0.00000000  1
  Li  Li35  1  0.50000000  0.50000000  0.00000000  1
