# generated using pymatgen
data_LiF
_symmetry_space_group_name_H-M   'P 1'
_cell_length_a   7.50048695
_cell_length_b   7.52858630
_cell_length_c   10.44574800
_cell_angle_alpha   90.00000000
_cell_angle_beta   90.00000000
_cell_angle_gamma   90.00000000
_symmetry_Int_Tables_number   1
_chemical_formula_structural   LiF
_chemical_formula_sum   'Li24 F24'
_cell_volume   589.85115975
_cell_formula_units_Z   24
loop_
 _symmetry_equiv_pos_site_id
 _symmetry_equiv_pos_as_xyz
  1  'x, y, z'
loop_
 _atom_site_type_symbol
 _atom_site_label
 _atom_site_symmetry_multiplicity
 _atom_site_fract_x
 _atom_site_fract_y
 _atom_site_fract_z
 _atom_site_occupancy
  F  F0  1  0.34983182  0.59690800  0.44803888  1
  F  F1  1  0.15016818  0.40309200  0.94803888  1
  F  F2  1  0.65016818  0.09690800  0.55196112  1
  F  F3  1  0.84983182  0.90309200  0.05196112  1
  F  F4  1  0.65016818  0.40309200  0.55196112  1
  F  F5  1  0.84983182  0.59690800  0.05196112  1
  F  F6  1  0.34983182  0.90309200  0.44803888  1
  F  F7  1  0.15016818  0.09690800  0.94803888  1
  F  F8  1  0.35538121  0.04080637  0.68741821  1
  F  F9  1  0.14461879  0.95919363  0.18741821  1
  F  F10  1  0.64461879  0.54080637  0.31258179  1
  F  F11  1  0.85538121  0.45919363  0.81258179  1
  F  F12  1  0.64461879  0.95919363  0.31258179  1
  F  F13  1  0.85538121  0.04080637  0.81258179  1
  F  F14  1  0.35538121  0.45919363  0.68741821  1
  F  F15  1  0.14461879  0.54080637  0.18741821  1
  F  F16  1  0.47158442  0.25000000  0.87288355  1
  F  F17  1  0.02841558  0.75000000  0.37288355  1
  F  F18  1  0.52841558  0.75000000  0.12711645  1
  F  F19  1  0.97158442  0.25000000  0.62711645  1
  F  F20  1  0.69093356  0.25000000  0.39701435  1
  F  F21  1  0.80906644  0.75000000  0.89701435  1
  F  F22  1  0.30906644  0.75000000  0.60298565  1
  F  F23  1  0.19093356  0.25000000  0.10298565  1
  Li  Li24  1  0.83388795  0.62480810  0.57238888  1
  Li  Li25  1  -0.33388795  -0.62480810  1.07238888  1
  Li  Li26  1  -0.83388795  1.12480810  -0.57238888  1
  Li  Li27  1  1.33388795  -0.12480810  -0.07238888  1
  Li  Li28  1  -0.83388795  -0.62480810  -0.57238888  1
  Li  Li29  1  1.33388795  0.62480810  -0.07238888  1
  Li  Li30  1  0.83388795  -0.12480810  0.57238888  1
  Li  Li31  1  -0.33388795  1.12480810  1.07238888  1
  Li  Li32  1  0.00000000  0.00000000  0.00000000  1
  Li  Li33  1  0.50000000  0.00000000  0.50000000  1
  Li  Li34  1  0.00000000  0.50000000  0.00000000  1
  Li  Li35  1  0.50000000  0.50000000  0.50000000  1
  Li  Li36  1  0.62907621  0.25000000  0.78793266  1
  Li  Li37  1  0.87092379  0.75000000  0.28793266  1
  Li  Li38  1  0.37092379  0.75000000  0.21206734  1
  Li  Li39  1  0.12907621  0.25000000  0.71206734  1
  Li  Li40  1  0.00000000  0.00000000  0.50000000  1
  Li  Li41  1  0.50000000  0.00000000  0.00000000  1
  Li  Li42  1  0.00000000  0.50000000  0.50000000  1
  Li  Li43  1  0.50000000  0.50000000  -0.00000000  1
  Li  Li44  1  0.79495673  0.25000000  0.50746786  1
  Li  Li45  1  0.70504327  0.75000000  0.00746786  1
  Li  Li46  1  0.20504327  0.75000000  0.49253214  1
  Li  Li47  1  0.29495673  0.25000000  0.99253214  1
