# generated using pymatgen
data_LiCaF3
_symmetry_space_group_name_H-M   'P 1'
_cell_length_a   9.44182657
_cell_length_b   9.44182657
_cell_length_c   15.88341068
_cell_angle_alpha   90.00000000
_cell_angle_beta   90.00000000
_cell_angle_gamma   120.00000000
_symmetry_Int_Tables_number   1
_chemical_formula_structural   LiCaF3
_chemical_formula_sum   'Li18 Ca18 F54'
_cell_volume   1226.27093387
_cell_formula_units_Z   18
loop_
 _symmetry_equiv_pos_site_id
 _symmetry_equiv_pos_as_xyz
  1  'x, y, z'
loop_
 _atom_site_type_symbol
 _atom_site_label
 _atom_site_symmetry_multiplicity
 _atom_site_fract_x
 _atom_site_fract_y
 _atom_site_fract_z
 _atom_site_occupancy
  Ca  Ca0  1  0.52439363  0.13448523  0.38681300  1
  Ca  Ca1  1  -0.13448523  0.38990840  0.38681300  1
  Ca  Ca2  1  -0.38990840  -0.52439363  0.38681300  1
  Ca  Ca3  1  0.52439363  0.13448523  -0.38681300  1
  Ca  Ca4  1  -0.13448523  0.38990840  -0.38681300  1
  Ca  Ca5  1  -0.38990840  -0.52439363  -0.38681300  1
  Ca  Ca6  1  0.13448523  0.52439363  -0.38681300  1
  Ca  Ca7  1  0.38990840  -0.13448523  -0.38681300  1
  Ca  Ca8  1  -0.52439363  -0.38990840  -0.38681300  1
  Ca  Ca9  1  0.13448523  0.52439363  0.38681300  1
  Ca  Ca10  1  0.38990840  -0.13448523  0.38681300  1
  Ca  Ca11  1  -0.52439363  -0.38990840  0.38681300  1
  Ca  Ca12  1  0.32985274  0.00000000  0.19245417  1
  Ca  Ca13  1  0.00000000  0.32985274  0.19245417  1
  Ca  Ca14  1  0.67014726  0.67014726  0.19245417  1
  Ca  Ca15  1  0.32985274  0.00000000  0.80754583  1
  Ca  Ca16  1  0.00000000  0.32985274  0.80754583  1
  Ca  Ca17  1  0.67014726  0.67014726  0.80754583  1
  F  F18  1  0.25134965  0.46655645  0.56690806  1
  F  F19  1  0.53344355  0.78479321  0.56690806  1
  F  F20  1  0.21520679  0.74865035  0.56690806  1
  F  F21  1  0.25134965  0.46655645  0.43309194  1
  F  F22  1  0.53344355  0.78479321  0.43309194  1
  F  F23  1  0.21520679  0.74865035  0.43309194  1
  F  F24  1  0.46655645  0.25134965  0.43309194  1
  F  F25  1  0.78479321  0.53344355  0.43309194  1
  F  F26  1  0.74865035  0.21520679  0.43309194  1
  F  F27  1  0.46655645  0.25134965  0.56690806  1
  F  F28  1  0.78479321  0.53344355  0.56690806  1
  F  F29  1  0.74865035  0.21520679  0.56690806  1
  F  F30  1  0.37639220  0.00000000  0.94229655  1
  F  F31  1  0.00000000  0.37639220  0.94229655  1
  F  F32  1  0.62360780  0.62360780  0.94229655  1
  F  F33  1  0.37639220  0.00000000  0.05770345  1
  F  F34  1  0.00000000  0.37639220  0.05770345  1
  F  F35  1  0.62360780  0.62360780  0.05770345  1
  F  F36  1  0.85707522  0.00000000  0.00000000  1
  F  F37  1  0.00000000  0.85707522  0.00000000  1
  F  F38  1  0.14292478  0.14292478  0.00000000  1
  F  F39  1  0.59740646  0.63410178  0.91174581  1
  F  F40  1  0.36589822  0.96330468  0.91174581  1
  F  F41  1  0.03669532  0.40259354  0.91174581  1
  F  F42  1  0.59740646  0.63410178  0.08825419  1
  F  F43  1  0.36589822  0.96330468  0.08825419  1
  F  F44  1  0.03669532  0.40259354  0.08825419  1
  F  F45  1  0.63410178  0.59740646  0.08825419  1
  F  F46  1  0.96330468  0.36589822  0.08825419  1
  F  F47  1  0.40259354  0.03669532  0.08825419  1
  F  F48  1  0.63410178  0.59740646  0.91174581  1
  F  F49  1  0.96330468  0.36589822  0.91174581  1
  F  F50  1  0.40259354  0.03669532  0.91174581  1
  F  F51  1  0.07308211  0.37264836  0.70928712  1
  F  F52  1  0.62735164  0.70043375  0.70928712  1
  F  F53  1  0.29956625  0.92691789  0.70928712  1
  F  F54  1  0.07308211  0.37264836  0.29071288  1
  F  F55  1  0.62735164  0.70043375  0.29071288  1
  F  F56  1  0.29956625  0.92691789  0.29071288  1
  F  F57  1  0.37264836  0.07308211  0.29071288  1
  F  F58  1  0.70043375  0.62735164  0.29071288  1
  F  F59  1  0.92691789  0.29956625  0.29071288  1
  F  F60  1  0.37264836  0.07308211  0.70928712  1
  F  F61  1  0.70043375  0.62735164  0.70928712  1
  F  F62  1  0.92691789  0.29956625  0.70928712  1
  F  F63  1  0.66350090  0.00000000  0.00000000  1
  F  F64  1  0.00000000  0.66350090  0.00000000  1
  F  F65  1  0.33649910  0.33649910  0.00000000  1
  F  F66  1  0.89640937  0.64418207  0.50000000  1
  F  F67  1  0.35581793  0.25222730  0.50000000  1
  F  F68  1  0.74777270  0.10359063  0.50000000  1
  F  F69  1  0.64418207  0.89640937  0.50000000  1
  F  F70  1  0.25222730  0.35581793  0.50000000  1
  F  F71  1  0.10359063  0.74777270  0.50000000  1
  Li  Li72  1  0.28389944  0.40469191  0.84563754  1
  Li  Li73  1  0.59530809  0.87920753  0.84563754  1
  Li  Li74  1  0.12079247  0.71610056  0.84563754  1
  Li  Li75  1  0.28389944  0.40469191  0.15436246  1
  Li  Li76  1  0.59530809  0.87920753  0.15436246  1
  Li  Li77  1  0.12079247  0.71610056  0.15436246  1
  Li  Li78  1  0.40469191  0.28389944  0.15436246  1
  Li  Li79  1  0.87920753  0.59530809  0.15436246  1
  Li  Li80  1  0.71610056  0.12079247  0.15436246  1
  Li  Li81  1  0.40469191  0.28389944  0.84563754  1
  Li  Li82  1  0.87920753  0.59530809  0.84563754  1
  Li  Li83  1  0.71610056  0.12079247  0.84563754  1
  Li  Li84  1  0.40755713  0.00000000  0.00000000  1
  Li  Li85  1  0.00000000  0.40755713  0.00000000  1
  Li  Li86  1  0.59244287  0.59244287  0.00000000  1
  Li  Li87  1  0.00000000  0.00000000  0.00000000  1
  Li  Li88  1  0.33333333  0.66666667  0.50000000  1
  Li  Li89  1  0.66666667  0.33333333  0.50000000  1
