# generated using pymatgen
data_LiYP2Se
_symmetry_space_group_name_H-M   'P 1'
_cell_length_a   3.75405348
_cell_length_b   4.02845974
_cell_length_c   6.69545562
_cell_angle_alpha   96.94729762
_cell_angle_beta   105.12976991
_cell_angle_gamma   117.90453340
_symmetry_Int_Tables_number   1
_chemical_formula_structural   LiYP2Se
_chemical_formula_sum   'Li2 Y2 P4 Se2'
_cell_volume   82.79919650
_cell_formula_units_Z   2
loop_
 _symmetry_equiv_pos_site_id
 _symmetry_equiv_pos_as_xyz
  1  'x, y, z'
loop_
 _atom_site_type_symbol
 _atom_site_label
 _atom_site_symmetry_multiplicity
 _atom_site_fract_x
 _atom_site_fract_y
 _atom_site_fract_z
 _atom_site_occupancy
  P  P0  1  0.12500000  0.00000000  0.25000000  1
  P  P1  1  0.00000000  0.00000000  0.00000000  1
  P  P2  1  0.37500000  0.00000000  0.25000000  1
  P  P3  1  0.25000000  0.25000000  0.25000000  1
  Se  Se4  1  0.00000000  0.25000000  0.12500000  1
  Se  Se5  1  0.24767821  0.54236138  0.76226044  1
  Li  Li6  1  0.75580461  0.76885979  0.34388153  1
  Li  Li7  1  0.29742285  0.29853385  0.56083301  1
  Y  Y8  1  0.26827010  0.11988575  0.72583851  1
  Y  Y9  1  0.08820272  0.68727991  0.22183340  1
