# generated using pymatgen
data_Li2YMo2P3Se
_symmetry_space_group_name_H-M   'P 1'
_cell_length_a   4.76630657
_cell_length_b   5.01813610
_cell_length_c   6.44003301
_cell_angle_alpha   93.11965102
_cell_angle_beta   98.08390581
_cell_angle_gamma   104.08794452
_symmetry_Int_Tables_number   1
_chemical_formula_structural   Li2YMo2P3Se
_chemical_formula_sum   'Li2 Y1 Mo2 P3 Se1'
_cell_volume   147.28355035
_cell_formula_units_Z   1
loop_
 _symmetry_equiv_pos_site_id
 _symmetry_equiv_pos_as_xyz
  1  'x, y, z'
loop_
 _atom_site_type_symbol
 _atom_site_label
 _atom_site_symmetry_multiplicity
 _atom_site_fract_x
 _atom_site_fract_y
 _atom_site_fract_z
 _atom_site_occupancy
  Y  Y0  1  0.12500000  0.00000000  0.25000000  1
  P  P1  1  0.00000000  0.00000000  0.00000000  1
  P  P2  1  0.37500000  0.00000000  0.25000000  1
  P  P3  1  0.25000000  0.25000000  0.25000000  1
  Mo  Mo4  1  0.00000000  0.25000000  0.12500000  1
  Mo  Mo5  1  0.95144926  0.43767208  0.12022521  1
  Se  Se6  1  0.18185715  0.50213320  0.71151564  1
  Li  Li7  1  0.84187682  0.11386918  0.55093046  1
  Li  Li8  1  0.99501306  0.52803707  0.11230734  1
