# generated using pymatgen
data_LiCu3Sb2P
_symmetry_space_group_name_H-M   'P 1'
_cell_length_a   4.85892913
_cell_length_b   5.00066801
_cell_length_c   6.49875034
_cell_angle_alpha   94.54331507
_cell_angle_beta   98.19315998
_cell_angle_gamma   105.58070310
_symmetry_Int_Tables_number   1
_chemical_formula_structural   LiCu3Sb2P
_chemical_formula_sum   'Li1 Cu3 Sb2 P1'
_cell_volume   149.40340788
_cell_formula_units_Z   1
loop_
 _symmetry_equiv_pos_site_id
 _symmetry_equiv_pos_as_xyz
  1  'x, y, z'
loop_
 _atom_site_type_symbol
 _atom_site_label
 _atom_site_symmetry_multiplicity
 _atom_site_fract_x
 _atom_site_fract_y
 _atom_site_fract_z
 _atom_site_occupancy
  Cu  Cu0  1  0.00000000  0.00000000  0.00000000  1
  Cu  Cu1  1  0.33300000  0.66700000  0.25000000  1
  Cu  Cu2  1  0.66700000  0.33300000  0.50000000  1
  P  P3  1  0.00000000  0.00000000  0.75000000  1
  Li  Li4  1  0.48835359  0.97555894  0.66818855  1
  Sb  Sb5  1  0.43136546  0.87808634  0.30570298  1
  Sb  Sb6  1  0.72403204  0.73727297  0.01740298  1
