# generated using pymatgen
data_LiF
_symmetry_space_group_name_H-M   'P 1'
_cell_length_a   6.44166479
_cell_length_b   8.62286788
_cell_length_c   14.81414996
_cell_angle_alpha   90.00000000
_cell_angle_beta   90.00000000
_cell_angle_gamma   90.00000000
_symmetry_Int_Tables_number   1
_chemical_formula_structural   LiF
_chemical_formula_sum   'Li24 F24'
_cell_volume   822.86120922
_cell_formula_units_Z   24
loop_
 _symmetry_equiv_pos_site_id
 _symmetry_equiv_pos_as_xyz
  1  'x, y, z'
loop_
 _atom_site_type_symbol
 _atom_site_label
 _atom_site_symmetry_multiplicity
 _atom_site_fract_x
 _atom_site_fract_y
 _atom_site_fract_z
 _atom_site_occupancy
  F  F0  1  0.22653382  0.25000000  0.04020425  1
  F  F1  1  0.27346618  0.75000000  0.54020425  1
  F  F2  1  0.77346618  0.75000000  0.95979575  1
  F  F3  1  0.72653382  0.25000000  0.45979575  1
  F  F4  1  0.70092989  0.25000000  0.64266703  1
  F  F5  1  0.79907011  0.75000000  0.14266703  1
  F  F6  1  0.29907011  0.75000000  0.35733297  1
  F  F7  1  0.20092989  0.25000000  0.85733297  1
  F  F8  1  0.18354038  0.68349047  0.34104317  1
  F  F9  1  0.31645962  0.31650953  0.84104317  1
  F  F10  1  0.81645962  0.18349047  0.65895683  1
  F  F11  1  0.68354038  0.81650953  0.15895683  1
  F  F12  1  0.81645962  0.31650953  0.65895683  1
  F  F13  1  0.68354038  0.68349047  0.15895683  1
  F  F14  1  0.18354038  0.81650953  0.34104317  1
  F  F15  1  0.31645962  0.18349047  0.84104317  1
  F  F16  1  0.75593780  0.50119586  0.33472825  1
  F  F17  1  0.74406220  0.49880414  0.83472825  1
  F  F18  1  0.24406220  0.00119586  0.66527175  1
  F  F19  1  0.25593780  0.99880414  0.16527175  1
  F  F20  1  0.24406220  0.49880414  0.66527175  1
  F  F21  1  0.25593780  0.50119586  0.16527175  1
  F  F22  1  0.75593780  0.99880414  0.33472825  1
  F  F23  1  0.74406220  0.00119586  0.83472825  1
  Li  Li24  1  0.00000000  0.00000000  0.00000000  1
  Li  Li25  1  0.50000000  0.00000000  0.50000000  1
  Li  Li26  1  0.00000000  0.50000000  0.00000000  1
  Li  Li27  1  0.50000000  0.50000000  0.50000000  1
  Li  Li28  1  0.52812305  0.14999721  0.61225743  1
  Li  Li29  1  -0.02812305  -0.14999721  1.11225743  1
  Li  Li30  1  -0.52812305  0.64999721  -0.61225743  1
  Li  Li31  1  1.02812305  0.35000279  -0.11225743  1
  Li  Li32  1  -0.52812305  -0.14999721  -0.61225743  1
  Li  Li33  1  1.02812305  0.14999721  -0.11225743  1
  Li  Li34  1  0.52812305  0.35000279  0.61225743  1
  Li  Li35  1  -0.02812305  0.64999721  1.11225743  1
  Li  Li36  1  0.00000000  0.00000000  0.50000000  1
  Li  Li37  1  0.50000000  0.00000000  0.00000000  1
  Li  Li38  1  0.00000000  0.50000000  0.50000000  1
  Li  Li39  1  0.50000000  0.50000000  0.00000000  1
  Li  Li40  1  0.05992022  0.43743442  0.80067027  1
  Li  Li41  1  0.44007978  0.56256558  0.30067027  1
  Li  Li42  1  0.94007978  0.93743442  0.19932973  1
  Li  Li43  1  0.55992022  0.06256558  0.69932973  1
  Li  Li44  1  0.94007978  0.56256558  0.19932973  1
  Li  Li45  1  0.55992022  0.43743442  0.69932973  1
  Li  Li46  1  0.05992022  0.06256558  0.80067027  1
  Li  Li47  1  0.44007978  0.93743442  0.30067027  1
