# generated using pymatgen
data_LiF
_symmetry_space_group_name_H-M   'P 1'
_cell_length_a   5.35140290
_cell_length_b   4.89243084
_cell_length_c   3.75216982
_cell_angle_alpha   90.00000000
_cell_angle_beta   90.00000000
_cell_angle_gamma   90.00000000
_symmetry_Int_Tables_number   1
_chemical_formula_structural   LiF
_chemical_formula_sum   'Li4 F4'
_cell_volume   98.23694109
_cell_formula_units_Z   4
loop_
 _symmetry_equiv_pos_site_id
 _symmetry_equiv_pos_as_xyz
  1  'x, y, z'
loop_
 _atom_site_type_symbol
 _atom_site_label
 _atom_site_symmetry_multiplicity
 _atom_site_fract_x
 _atom_site_fract_y
 _atom_site_fract_z
 _atom_site_occupancy
  F  F0  1  0.33077124  0.53163878  0.00000000  1
  F  F1  1  -0.33077124  -0.53163878  0.00000000  1
  F  F2  1  0.16922876  1.03163878  -0.00000000  1
  F  F3  1  0.83077124  -0.03163878  -0.00000000  1
  Li  Li4  1  0.26539199  0.89513504  0.50000000  1
  Li  Li5  1  0.73460801  0.10486496  0.50000000  1
  Li  Li6  1  0.23460801  0.39513504  0.50000000  1
  Li  Li7  1  0.76539199  0.60486496  0.50000000  1
