# generated using pymatgen
data_LiF
_symmetry_space_group_name_H-M   'P 1'
_cell_length_a   7.34523964
_cell_length_b   7.34523964
_cell_length_c   4.13720568
_cell_angle_alpha   90.00000000
_cell_angle_beta   90.00000000
_cell_angle_gamma   120.00000000
_symmetry_Int_Tables_number   1
_chemical_formula_structural   LiF
_chemical_formula_sum   'Li12 F12'
_cell_volume   193.30793553
_cell_formula_units_Z   12
loop_
 _symmetry_equiv_pos_site_id
 _symmetry_equiv_pos_as_xyz
  1  'x, y, z'
loop_
 _atom_site_type_symbol
 _atom_site_label
 _atom_site_symmetry_multiplicity
 _atom_site_fract_x
 _atom_site_fract_y
 _atom_site_fract_z
 _atom_site_occupancy
  F  F0  1  0.77672370  0.37362133  0.85558954  1
  F  F1  1  0.62637867  0.40310236  0.85558954  1
  F  F2  1  0.59689764  0.22327630  0.85558954  1
  F  F3  1  0.62637867  0.22327630  0.14441046  1
  F  F4  1  0.59689764  0.37362133  0.14441046  1
  F  F5  1  0.77672370  0.40310236  0.14441046  1
  F  F6  1  0.64998653  0.53815288  0.15937602  1
  F  F7  1  0.46184712  0.11183365  0.15937602  1
  F  F8  1  0.88816635  0.35001347  0.15937602  1
  F  F9  1  0.46184712  0.35001347  0.84062398  1
  F  F10  1  0.88816635  0.53815288  0.84062398  1
  F  F11  1  0.64998653  0.11183365  0.84062398  1
  Li  Li12  1  0.00000000  0.00000000  0.00000000  1
  Li  Li13  1  0.55396952  0.44603048  0.50000000  1
  Li  Li14  1  0.55396952  0.10793903  0.50000000  1
  Li  Li15  1  0.89206097  0.44603048  0.50000000  1
  Li  Li16  1  0.77985277  0.75685899  0.40932689  1
  Li  Li17  1  -0.75685899  0.02299378  0.40932689  1
  Li  Li18  1  -0.02299378  -0.77985277  0.40932689  1
  Li  Li19  1  -0.75685899  -0.77985277  -0.40932689  1
  Li  Li20  1  -0.02299378  0.75685899  -0.40932689  1
  Li  Li21  1  0.77985277  0.02299378  -0.40932689  1
  Li  Li22  1  0.33333333  0.66666667  0.00000000  1
  Li  Li23  1  0.66666667  0.33333333  0.50000000  1
