# generated using pymatgen
data_LiF
_symmetry_space_group_name_H-M   'P 1'
_cell_length_a   16.46108343
_cell_length_b   5.73617018
_cell_length_c   6.78057091
_cell_angle_alpha   90.00000000
_cell_angle_beta   90.00000000
_cell_angle_gamma   90.00000000
_symmetry_Int_Tables_number   1
_chemical_formula_structural   LiF
_chemical_formula_sum   'Li24 F24'
_cell_volume   640.24575184
_cell_formula_units_Z   24
loop_
 _symmetry_equiv_pos_site_id
 _symmetry_equiv_pos_as_xyz
  1  'x, y, z'
loop_
 _atom_site_type_symbol
 _atom_site_label
 _atom_site_symmetry_multiplicity
 _atom_site_fract_x
 _atom_site_fract_y
 _atom_site_fract_z
 _atom_site_occupancy
  F  F0  1  0.93846689  0.53669643  0.87920996  1
  F  F1  1  0.56153311  0.46330357  0.37920996  1
  F  F2  1  0.06153311  0.03669643  0.12079004  1
  F  F3  1  0.43846689  0.96330357  0.62079004  1
  F  F4  1  0.06153311  0.46330357  0.12079004  1
  F  F5  1  0.43846689  0.53669643  0.62079004  1
  F  F6  1  0.93846689  0.96330357  0.87920996  1
  F  F7  1  0.56153311  0.03669643  0.37920996  1
  F  F8  1  0.53202956  0.84466809  0.25190388  1
  F  F9  1  0.96797044  0.15533191  0.75190388  1
  F  F10  1  0.46797044  0.34466809  0.74809612  1
  F  F11  1  0.03202956  0.65533191  0.24809612  1
  F  F12  1  0.46797044  0.15533191  0.74809612  1
  F  F13  1  0.03202956  0.84466809  0.24809612  1
  F  F14  1  0.53202956  0.65533191  0.25190388  1
  F  F15  1  0.96797044  0.34466809  0.75190388  1
  F  F16  1  0.53639261  0.48281088  0.19816704  1
  F  F17  1  0.96360739  0.51718912  0.69816704  1
  F  F18  1  0.46360739  0.98281088  0.80183296  1
  F  F19  1  0.03639261  0.01718912  0.30183296  1
  F  F20  1  0.46360739  0.51718912  0.80183296  1
  F  F21  1  0.03639261  0.48281088  0.30183296  1
  F  F22  1  0.53639261  0.01718912  0.19816704  1
  F  F23  1  0.96360739  0.98281088  0.69816704  1
  Li  Li24  1  0.60603440  0.25000000  0.52447207  1
  Li  Li25  1  0.89396560  0.75000000  0.02447207  1
  Li  Li26  1  0.39396560  0.75000000  0.47552793  1
  Li  Li27  1  0.10603440  0.25000000  0.97552793  1
  Li  Li28  1  0.84034396  0.08792012  0.53463753  1
  Li  Li29  1  -0.34034396  -0.08792012  1.03463753  1
  Li  Li30  1  -0.84034396  0.58792012  -0.53463753  1
  Li  Li31  1  1.34034396  0.41207988  -0.03463753  1
  Li  Li32  1  -0.84034396  -0.08792012  -0.53463753  1
  Li  Li33  1  1.34034396  0.08792012  -0.03463753  1
  Li  Li34  1  0.84034396  0.41207988  0.53463753  1
  Li  Li35  1  -0.34034396  0.58792012  1.03463753  1
  Li  Li36  1  0.00000000  0.00000000  0.00000000  1
  Li  Li37  1  0.50000000  0.00000000  0.50000000  1
  Li  Li38  1  0.00000000  0.50000000  0.00000000  1
  Li  Li39  1  0.50000000  0.50000000  0.50000000  1
  Li  Li40  1  0.39256194  0.25000000  0.65700724  1
  Li  Li41  1  0.10743806  0.75000000  0.15700724  1
  Li  Li42  1  0.60743806  0.75000000  0.34299276  1
  Li  Li43  1  0.89256194  0.25000000  0.84299276  1
  Li  Li44  1  0.00000000  0.00000000  0.50000000  1
  Li  Li45  1  0.50000000  0.00000000  0.00000000  1
  Li  Li46  1  0.00000000  0.50000000  0.50000000  1
  Li  Li47  1  0.50000000  0.50000000  0.00000000  1
