# generated using pymatgen
data_LiF
_symmetry_space_group_name_H-M   'P 1'
_cell_length_a   8.72775858
_cell_length_b   8.84571092
_cell_length_c   11.04182523
_cell_angle_alpha   90.00000000
_cell_angle_beta   90.00000000
_cell_angle_gamma   90.00000000
_symmetry_Int_Tables_number   1
_chemical_formula_structural   LiF
_chemical_formula_sum   'Li24 F24'
_cell_volume   852.46456522
_cell_formula_units_Z   24
loop_
 _symmetry_equiv_pos_site_id
 _symmetry_equiv_pos_as_xyz
  1  'x, y, z'
loop_
 _atom_site_type_symbol
 _atom_site_label
 _atom_site_symmetry_multiplicity
 _atom_site_fract_x
 _atom_site_fract_y
 _atom_site_fract_z
 _atom_site_occupancy
  F  F0  1  0.03277825  0.25000000  0.40261870  1
  F  F1  1  0.46722175  0.75000000  0.90261870  1
  F  F2  1  0.96722175  0.75000000  0.59738130  1
  F  F3  1  0.53277825  0.25000000  0.09738130  1
  F  F4  1  0.70176509  0.25000000  0.30950465  1
  F  F5  1  0.79823491  0.75000000  0.80950465  1
  F  F6  1  0.29823491  0.75000000  0.69049535  1
  F  F7  1  0.20176509  0.25000000  0.19049535  1
  F  F8  1  0.25197944  0.81759329  0.54428594  1
  F  F9  1  0.24802056  0.18240671  0.04428594  1
  F  F10  1  0.74802056  0.31759329  0.45571406  1
  F  F11  1  0.75197944  0.68240671  0.95571406  1
  F  F12  1  0.74802056  0.18240671  0.45571406  1
  F  F13  1  0.75197944  0.81759329  0.95571406  1
  F  F14  1  0.25197944  0.68240671  0.54428594  1
  F  F15  1  0.24802056  0.31759329  0.04428594  1
  F  F16  1  0.57357652  0.67978880  0.02715028  1
  F  F17  1  0.92642348  0.32021120  0.52715028  1
  F  F18  1  0.42642348  0.17978880  0.97284972  1
  F  F19  1  0.07357652  0.82021120  0.47284972  1
  F  F20  1  0.42642348  0.32021120  0.97284972  1
  F  F21  1  0.07357652  0.67978880  0.47284972  1
  F  F22  1  0.57357652  0.82021120  0.02715028  1
  F  F23  1  0.92642348  0.17978880  0.52715028  1
  Li  Li24  1  0.00000000  0.00000000  0.00000000  1
  Li  Li25  1  0.50000000  0.00000000  0.50000000  1
  Li  Li26  1  0.00000000  0.50000000  0.00000000  1
  Li  Li27  1  0.50000000  0.50000000  0.50000000  1
  Li  Li28  1  0.25202855  0.45079498  0.21440404  1
  Li  Li29  1  0.24797145  -0.45079498  0.71440404  1
  Li  Li30  1  -0.25202855  0.95079498  -0.21440404  1
  Li  Li31  1  0.75202855  0.04920502  0.28559596  1
  Li  Li32  1  -0.25202855  -0.45079498  -0.21440404  1
  Li  Li33  1  0.75202855  0.45079498  0.28559596  1
  Li  Li34  1  0.25202855  0.04920502  0.21440404  1
  Li  Li35  1  0.24797145  0.95079498  0.71440404  1
  Li  Li36  1  0.21015220  0.25000000  0.59737061  1
  Li  Li37  1  0.28984780  0.75000000  0.09737061  1
  Li  Li38  1  0.78984780  0.75000000  0.40262939  1
  Li  Li39  1  0.71015220  0.25000000  0.90262939  1
  Li  Li40  1  0.07409924  0.10139104  0.83441437  1
  Li  Li41  1  0.42590076  0.89860896  0.33441437  1
  Li  Li42  1  0.92590076  0.60139104  0.16558563  1
  Li  Li43  1  0.57409924  0.39860896  0.66558563  1
  Li  Li44  1  0.92590076  0.89860896  0.16558563  1
  Li  Li45  1  0.57409924  0.10139104  0.66558563  1
  Li  Li46  1  0.07409924  0.39860896  0.83441437  1
  Li  Li47  1  0.42590076  0.60139104  0.33441437  1
