# generated using pymatgen
data_Li2Y2Te4MoP3
_symmetry_space_group_name_H-M   'P 1'
_cell_length_a   4.85182045
_cell_length_b   5.15822040
_cell_length_c   7.05177389
_cell_angle_alpha   95.15584812
_cell_angle_beta   101.22836533
_cell_angle_gamma   110.70899276
_symmetry_Int_Tables_number   1
_chemical_formula_structural   Li2Y2Te4MoP3
_chemical_formula_sum   'Li2 Y2 Te4 Mo1 P3'
_cell_volume   159.47901000
_cell_formula_units_Z   1
loop_
 _symmetry_equiv_pos_site_id
 _symmetry_equiv_pos_as_xyz
  1  'x, y, z'
loop_
 _atom_site_type_symbol
 _atom_site_label
 _atom_site_symmetry_multiplicity
 _atom_site_fract_x
 _atom_site_fract_y
 _atom_site_fract_z
 _atom_site_occupancy
  Te  Te0  1  0.00000000  0.00000000  0.00000000  1
  Te  Te1  1  0.50000000  0.50000000  0.50000000  1
  Te  Te2  1  0.25000000  0.25000000  0.25000000  1
  Te  Te3  1  0.75000000  0.25000000  0.00000000  1
  Y  Y4  1  0.25000000  0.75000000  0.50000000  1
  Y  Y5  1  0.67080155  0.74602477  0.11559647  1
  P  P6  1  0.51408839  0.42186477  0.31015295  1
  P  P7  1  0.44875790  0.32667376  0.32148157  1
  P  P8  1  0.07152542  0.55023630  0.16019719  1
  Mo  Mo9  1  0.01275288  0.48486246  0.47280098  1
  Li  Li10  1  0.54428197  0.87881395  0.15423148  1
  Li  Li11  1  0.96558301  0.92101500  0.56644950  1
