# generated using pymatgen
data_LiF
_symmetry_space_group_name_H-M   'P 1'
_cell_length_a   5.90268109
_cell_length_b   6.70219254
_cell_length_c   9.46320858
_cell_angle_alpha   90.00000000
_cell_angle_beta   90.00000000
_cell_angle_gamma   90.00000000
_symmetry_Int_Tables_number   1
_chemical_formula_structural   LiF
_chemical_formula_sum   'Li14 F14'
_cell_volume   374.37309704
_cell_formula_units_Z   14
loop_
 _symmetry_equiv_pos_site_id
 _symmetry_equiv_pos_as_xyz
  1  'x, y, z'
loop_
 _atom_site_type_symbol
 _atom_site_label
 _atom_site_symmetry_multiplicity
 _atom_site_fract_x
 _atom_site_fract_y
 _atom_site_fract_z
 _atom_site_occupancy
  F  F0  1  0.37145105  0.99191716  0.14864676  1
  F  F1  1  -0.37145105  -0.99191716  0.14864676  1
  F  F2  1  0.12854895  1.49191716  -0.14864676  1
  F  F3  1  0.87145105  -0.49191716  -0.14864676  1
  F  F4  1  -0.37145105  -0.99191716  -0.14864676  1
  F  F5  1  0.37145105  0.99191716  -0.14864676  1
  F  F6  1  0.87145105  -0.49191716  0.14864676  1
  F  F7  1  0.12854895  1.49191716  0.14864676  1
  F  F8  1  0.00000000  0.50000000  0.69010213  1
  F  F9  1  0.50000000  0.00000000  0.30989787  1
  F  F10  1  0.00000000  0.50000000  0.30989787  1
  F  F11  1  0.50000000  0.00000000  0.69010213  1
  F  F12  1  0.00000000  0.50000000  0.50000000  1
  F  F13  1  0.50000000  0.00000000  0.50000000  1
  Li  Li14  1  0.88153240  0.29536915  0.07746329  1
  Li  Li15  1  0.11846760  0.70463085  0.07746329  1
  Li  Li16  1  0.61846760  0.79536915  0.92253671  1
  Li  Li17  1  0.38153240  0.20463085  0.92253671  1
  Li  Li18  1  0.11846760  0.70463085  0.92253671  1
  Li  Li19  1  0.88153240  0.29536915  0.92253671  1
  Li  Li20  1  0.38153240  0.20463085  0.07746329  1
  Li  Li21  1  0.61846760  0.79536915  0.07746329  1
  Li  Li22  1  0.00000000  0.00000000  0.00000000  1
  Li  Li23  1  0.50000000  0.50000000  0.00000000  1
  Li  Li24  1  0.40734920  0.42178066  0.50000000  1
  Li  Li25  1  0.59265080  0.57821934  0.50000000  1
  Li  Li26  1  0.09265080  0.92178066  0.50000000  1
  Li  Li27  1  0.90734920  0.07821934  0.50000000  1
