# generated using pymatgen
data_LiF
_symmetry_space_group_name_H-M   'P 1'
_cell_length_a   7.09412933
_cell_length_b   8.37966186
_cell_length_c   12.20688209
_cell_angle_alpha   90.00000000
_cell_angle_beta   90.00000000
_cell_angle_gamma   90.00000000
_symmetry_Int_Tables_number   1
_chemical_formula_structural   LiF
_chemical_formula_sum   'Li28 F28'
_cell_volume   725.65525654
_cell_formula_units_Z   28
loop_
 _symmetry_equiv_pos_site_id
 _symmetry_equiv_pos_as_xyz
  1  'x, y, z'
loop_
 _atom_site_type_symbol
 _atom_site_label
 _atom_site_symmetry_multiplicity
 _atom_site_fract_x
 _atom_site_fract_y
 _atom_site_fract_z
 _atom_site_occupancy
  F  F0  1  0.96857215  0.47160189  0.83557407  1
  F  F1  1  0.53142785  0.52839811  0.33557407  1
  F  F2  1  0.03142785  0.97160189  0.16442593  1
  F  F3  1  0.46857215  0.02839811  0.66442593  1
  F  F4  1  0.03142785  0.52839811  0.16442593  1
  F  F5  1  0.46857215  0.47160189  0.66442593  1
  F  F6  1  0.96857215  0.02839811  0.83557407  1
  F  F7  1  0.53142785  0.97160189  0.33557407  1
  F  F8  1  0.00000000  0.00000000  0.00000000  1
  F  F9  1  0.50000000  0.00000000  0.50000000  1
  F  F10  1  0.00000000  0.50000000  0.00000000  1
  F  F11  1  0.50000000  0.50000000  0.50000000  1
  F  F12  1  0.60859203  0.48515676  0.95300634  1
  F  F13  1  0.89140797  0.51484324  0.45300634  1
  F  F14  1  0.39140797  0.98515676  0.04699366  1
  F  F15  1  0.10859203  0.01484324  0.54699366  1
  F  F16  1  0.39140797  0.51484324  0.04699366  1
  F  F17  1  0.10859203  0.48515676  0.54699366  1
  F  F18  1  0.60859203  0.01484324  0.95300634  1
  F  F19  1  0.89140797  0.98515676  0.45300634  1
  F  F20  1  0.78466011  0.49654837  0.63115397  1
  F  F21  1  0.71533989  0.50345163  0.13115397  1
  F  F22  1  0.21533989  0.99654837  0.36884603  1
  F  F23  1  0.28466011  0.00345163  0.86884603  1
  F  F24  1  0.21533989  0.50345163  0.36884603  1
  F  F25  1  0.28466011  0.49654837  0.86884603  1
  F  F26  1  0.78466011  0.00345163  0.63115397  1
  F  F27  1  0.71533989  0.99654837  0.13115397  1
  Li  Li28  1  0.72657617  0.25000000  0.34794404  1
  Li  Li29  1  0.77342383  0.75000000  0.84794404  1
  Li  Li30  1  0.27342383  0.75000000  0.65205596  1
  Li  Li31  1  0.22657617  0.25000000  0.15205596  1
  Li  Li32  1  0.32107338  0.25000000  0.61087229  1
  Li  Li33  1  0.17892662  0.75000000  0.11087229  1
  Li  Li34  1  0.67892662  0.75000000  0.38912771  1
  Li  Li35  1  0.82107338  0.25000000  0.88912771  1
  Li  Li36  1  0.00000000  0.00000000  0.50000000  1
  Li  Li37  1  0.50000000  0.00000000  0.00000000  1
  Li  Li38  1  0.00000000  0.50000000  0.50000000  1
  Li  Li39  1  0.50000000  0.50000000  0.00000000  1
  Li  Li40  1  0.51582909  0.17285854  0.23573931  1
  Li  Li41  1  -0.01582909  -0.17285854  0.73573931  1
  Li  Li42  1  -0.51582909  0.67285854  -0.23573931  1
  Li  Li43  1  1.01582909  0.32714146  0.26426069  1
  Li  Li44  1  -0.51582909  -0.17285854  -0.23573931  1
  Li  Li45  1  1.01582909  0.17285854  0.26426069  1
  Li  Li46  1  0.51582909  0.32714146  0.23573931  1
  Li  Li47  1  -0.01582909  0.67285854  0.73573931  1
  Li  Li48  1  0.21669183  0.25000000  0.97018349  1
  Li  Li49  1  0.28330817  0.75000000  0.47018349  1
  Li  Li50  1  0.78330817  0.75000000  0.02981651  1
  Li  Li51  1  0.71669183  0.25000000  0.52981651  1
  Li  Li52  1  0.57627706  0.25000000  0.76556129  1
  Li  Li53  1  0.92372294  0.75000000  0.26556129  1
  Li  Li54  1  0.42372294  0.75000000  0.23443871  1
  Li  Li55  1  0.07627706  0.25000000  0.73443871  1
