# generated using pymatgen
data_Li4TeF2
_symmetry_space_group_name_H-M   'P 1'
_cell_length_a   7.73199746
_cell_length_b   7.73199746
_cell_length_c   43.92434722
_cell_angle_alpha   90.00000000
_cell_angle_beta   90.00000000
_cell_angle_gamma   120.00000000
_symmetry_Int_Tables_number   1
_chemical_formula_structural   Li4TeF2
_chemical_formula_sum   'Li96 Te24 F48'
_cell_volume   2274.15128673
_cell_formula_units_Z   24
loop_
 _symmetry_equiv_pos_site_id
 _symmetry_equiv_pos_as_xyz
  1  'x, y, z'
loop_
 _atom_site_type_symbol
 _atom_site_label
 _atom_site_symmetry_multiplicity
 _atom_site_fract_x
 _atom_site_fract_y
 _atom_site_fract_z
 _atom_site_occupancy
  F  F0  1  0.66666667  0.33333333  0.00000000  1
  F  F1  1  0.20545368  0.79454632  0.50000000  1
  F  F2  1  0.20545368  0.41090735  0.50000000  1
  F  F3  1  0.58909265  0.79454632  0.50000000  1
  F  F4  1  0.00159936  0.36744145  0.54359340  1
  F  F5  1  -0.36744145  -0.36584209  0.54359340  1
  F  F6  1  0.36584209  -0.00159936  0.54359340  1
  F  F7  1  -0.36744145  -0.00159936  -0.54359340  1
  F  F8  1  0.36584209  0.36744145  -0.54359340  1
  F  F9  1  0.00159936  -0.36584209  -0.54359340  1
  F  F10  1  0.49522340  0.10344198  0.22576148  1
  F  F11  1  0.89655802  0.39178142  0.22576148  1
  F  F12  1  0.60821858  0.50477660  0.22576148  1
  F  F13  1  0.89655802  0.50477660  0.77423852  1
  F  F14  1  0.60821858  0.10344198  0.77423852  1
  F  F15  1  0.49522340  0.39178142  0.77423852  1
  F  F16  1  0.41205184  0.49359073  0.99937002  1
  F  F17  1  0.50640927  0.91846111  0.99937002  1
  F  F18  1  0.08153889  0.58794816  0.99937002  1
  F  F19  1  0.50640927  0.58794816  0.00062998  1
  F  F20  1  0.08153889  0.49359073  0.00062998  1
  F  F21  1  0.41205184  0.91846111  0.00062998  1
  F  F22  1  0.61481918  0.90869834  0.51328392  1
  F  F23  1  0.09130166  0.70612084  0.51328392  1
  F  F24  1  0.29387916  0.38518082  0.51328392  1
  F  F25  1  0.09130166  0.38518082  0.48671608  1
  F  F26  1  0.29387916  0.90869834  0.48671608  1
  F  F27  1  0.61481918  0.70612084  0.48671608  1
  F  F28  1  0.86607039  0.81120899  0.98062786  1
  F  F29  1  0.18879101  0.05486140  0.98062786  1
  F  F30  1  0.94513860  0.13392961  0.98062786  1
  F  F31  1  0.18879101  0.13392961  0.01937214  1
  F  F32  1  0.94513860  0.81120899  0.01937214  1
  F  F33  1  0.86607039  0.05486140  0.01937214  1
  F  F34  1  0.59096291  0.16601953  0.41517824  1
  F  F35  1  0.83398047  0.42494337  0.41517824  1
  F  F36  1  0.57505663  0.40903709  0.41517824  1
  F  F37  1  0.83398047  0.40903709  0.58482176  1
  F  F38  1  0.57505663  0.16601953  0.58482176  1
  F  F39  1  0.59096291  0.42494337  0.58482176  1
  F  F40  1  0.22481827  0.85234367  0.31142070  1
  F  F41  1  0.14765633  0.37247459  0.31142070  1
  F  F42  1  0.62752541  0.77518173  0.31142070  1
  F  F43  1  0.14765633  0.77518173  0.68857930  1
  F  F44  1  0.62752541  0.85234367  0.68857930  1
  F  F45  1  0.22481827  0.37247459  0.68857930  1
  F  F46  1  0.00000000  0.00000000  0.50000000  1
  F  F47  1  0.33333333  0.66666667  0.00000000  1
  Li  Li48  1  0.31628404  0.21046712  0.73630745  1
  Li  Li49  1  0.78953288  0.10581692  0.73630745  1
  Li  Li50  1  0.89418308  0.68371596  0.73630745  1
  Li  Li51  1  0.78953288  0.68371596  0.26369255  1
  Li  Li52  1  0.89418308  0.21046712  0.26369255  1
  Li  Li53  1  0.31628404  0.10581692  0.26369255  1
  Li  Li54  1  0.84038274  0.76084224  0.86523599  1
  Li  Li55  1  0.23915776  0.07954050  0.86523599  1
  Li  Li56  1  0.92045950  0.15961726  0.86523599  1
  Li  Li57  1  0.23915776  0.15961726  0.13476401  1
  Li  Li58  1  0.92045950  0.76084224  0.13476401  1
  Li  Li59  1  0.84038274  0.07954050  0.13476401  1
  Li  Li60  1  0.00000000  0.00000000  0.00000000  1
  Li  Li61  1  0.66666667  0.33333333  0.54454873  1
  Li  Li62  1  0.66666667  0.33333333  0.45545127  1
  Li  Li63  1  0.51189432  0.26109885  0.76661735  1
  Li  Li64  1  0.73890115  0.25079547  0.76661735  1
  Li  Li65  1  0.74920453  0.48810568  0.76661735  1
  Li  Li66  1  0.73890115  0.48810568  0.23338265  1
  Li  Li67  1  0.74920453  0.26109885  0.23338265  1
  Li  Li68  1  0.51189432  0.25079547  0.23338265  1
  Li  Li69  1  0.14104121  0.74771726  0.64958017  1
  Li  Li70  1  0.25228274  0.39332395  0.64958017  1
  Li  Li71  1  0.60667605  0.85895879  0.64958017  1
  Li  Li72  1  0.25228274  0.85895879  0.35041983  1
  Li  Li73  1  0.60667605  0.74771726  0.35041983  1
  Li  Li74  1  0.14104121  0.39332395  0.35041983  1
  Li  Li75  1  0.66666667  0.33333333  0.63839239  1
  Li  Li76  1  0.66666667  0.33333333  0.36160761  1
  Li  Li77  1  0.23158387  0.41915639  0.17473833  1
  Li  Li78  1  0.58084361  0.81242748  0.17473833  1
  Li  Li79  1  0.18757252  0.76841613  0.17473833  1
  Li  Li80  1  0.58084361  0.76841613  0.82526167  1
  Li  Li81  1  0.18757252  0.41915639  0.82526167  1
  Li  Li82  1  0.23158387  0.81242748  0.82526167  1
  Li  Li83  1  0.96958145  0.65103607  0.77872475  1
  Li  Li84  1  0.34896393  0.31854538  0.77872475  1
  Li  Li85  1  0.68145462  0.03041855  0.77872475  1
  Li  Li86  1  0.34896393  0.03041855  0.22127525  1
  Li  Li87  1  0.68145462  0.65103607  0.22127525  1
  Li  Li88  1  0.96958145  0.31854538  0.22127525  1
  Li  Li89  1  0.76997679  0.41946759  0.09457190  1
  Li  Li90  1  0.58053241  0.35050920  0.09457190  1
  Li  Li91  1  0.64949080  0.23002321  0.09457190  1
  Li  Li92  1  0.58053241  0.23002321  0.90542810  1
  Li  Li93  1  0.64949080  0.41946759  0.90542810  1
  Li  Li94  1  0.76997679  0.35050920  0.90542810  1
  Li  Li95  1  0.35123962  0.56525262  0.61512122  1
  Li  Li96  1  0.43474738  0.78598700  0.61512122  1
  Li  Li97  1  0.21401300  0.64876038  0.61512122  1
  Li  Li98  1  0.43474738  0.64876038  0.38487878  1
  Li  Li99  1  0.21401300  0.56525262  0.38487878  1
  Li  Li100  1  0.35123962  0.78598700  0.38487878  1
  Li  Li101  1  0.64640655  0.14365553  0.94550413  1
  Li  Li102  1  0.85634447  0.50275102  0.94550413  1
  Li  Li103  1  0.49724898  0.35359345  0.94550413  1
  Li  Li104  1  0.85634447  0.35359345  0.05449587  1
  Li  Li105  1  0.49724898  0.14365553  0.05449587  1
  Li  Li106  1  0.64640655  0.50275102  0.05449587  1
  Li  Li107  1  0.76939115  0.81007923  0.81890342  1
  Li  Li108  1  0.18992077  0.95931193  0.81890342  1
  Li  Li109  1  0.04068807  0.23060885  0.81890342  1
  Li  Li110  1  0.18992077  0.23060885  0.18109658  1
  Li  Li111  1  0.04068807  0.81007923  0.18109658  1
  Li  Li112  1  0.76939115  0.95931193  0.18109658  1
  Li  Li113  1  0.73453877  0.68000329  0.97448936  1
  Li  Li114  1  0.31999671  0.05453548  0.97448936  1
  Li  Li115  1  0.94546452  0.26546123  0.97448936  1
  Li  Li116  1  0.31999671  0.26546123  0.02551064  1
  Li  Li117  1  0.94546452  0.68000329  0.02551064  1
  Li  Li118  1  0.73453877  0.05453548  0.02551064  1
  Li  Li119  1  0.00000000  0.00000000  0.52651909  1
  Li  Li120  1  0.00000000  0.00000000  0.47348091  1
  Li  Li121  1  0.33333333  0.66666667  0.16794065  1
  Li  Li122  1  0.33333333  0.66666667  0.83205935  1
  Li  Li123  1  0.73393261  0.11639289  0.40859346  1
  Li  Li124  1  0.88360711  0.61753972  0.40859346  1
  Li  Li125  1  0.38246028  0.26606739  0.40859346  1
  Li  Li126  1  0.88360711  0.26606739  0.59140654  1
  Li  Li127  1  0.38246028  0.11639289  0.59140654  1
  Li  Li128  1  0.73393261  0.61753972  0.59140654  1
  Li  Li129  1  0.35026705  0.84190298  0.13804273  1
  Li  Li130  1  0.15809702  0.50836406  0.13804273  1
  Li  Li131  1  0.49163594  0.64973295  0.13804273  1
  Li  Li132  1  0.15809702  0.64973295  0.86195727  1
  Li  Li133  1  0.49163594  0.84190298  0.86195727  1
  Li  Li134  1  0.35026705  0.50836406  0.86195727  1
  Li  Li135  1  0.90190077  0.45040864  0.39374676  1
  Li  Li136  1  0.54959136  0.45149212  0.39374676  1
  Li  Li137  1  0.54850788  0.09809923  0.39374676  1
  Li  Li138  1  0.54959136  0.09809923  0.60625324  1
  Li  Li139  1  0.54850788  0.45040864  0.60625324  1
  Li  Li140  1  0.90190077  0.45149212  0.60625324  1
  Li  Li141  1  0.77480630  0.22519370  0.00000000  1
  Li  Li142  1  0.77480630  0.54961260  0.00000000  1
  Li  Li143  1  0.45038740  0.22519370  -0.00000000  1
  Te  Te144  1  0.00000000  0.00000000  0.92620517  1
  Te  Te145  1  0.00000000  0.00000000  0.07379483  1
  Te  Te146  1  0.33333333  0.66666667  0.50000000  1
  Te  Te147  1  0.73224872  0.90752837  0.74857101  1
  Te  Te148  1  0.09247163  0.82472035  0.74857101  1
  Te  Te149  1  0.17527965  0.26775128  0.74857101  1
  Te  Te150  1  0.09247163  0.26775128  0.25142899  1
  Te  Te151  1  0.17527965  0.90752837  0.25142899  1
  Te  Te152  1  0.73224872  0.82472035  0.25142899  1
  Te  Te153  1  0.66666667  0.33333333  0.50000000  1
  Te  Te154  1  0.02309977  0.38023987  0.01984661  1
  Te  Te155  1  0.61976013  0.64285990  0.01984661  1
  Te  Te156  1  0.35714010  0.97690023  0.01984661  1
  Te  Te157  1  0.61976013  0.97690023  0.98015339  1
  Te  Te158  1  0.35714010  0.38023987  0.98015339  1
  Te  Te159  1  0.02309977  0.64285990  0.98015339  1
  Te  Te160  1  0.18693264  0.51416545  0.63660909  1
  Te  Te161  1  0.48583455  0.67276719  0.63660909  1
  Te  Te162  1  0.32723281  0.81306736  0.63660909  1
  Te  Te163  1  0.48583455  0.81306736  0.36339091  1
  Te  Te164  1  0.32723281  0.51416545  0.36339091  1
  Te  Te165  1  0.18693264  0.67276719  0.36339091  1
  Te  Te166  1  0.00000000  0.00000000  0.19300941  1
  Te  Te167  1  0.00000000  0.00000000  0.80699059  1
