# generated using pymatgen
data_Li2Y2Mo(PSe)2
_symmetry_space_group_name_H-M   'P 1'
_cell_length_a   5.07619368
_cell_length_b   5.23485133
_cell_length_c   7.01890890
_cell_angle_alpha   94.63712926
_cell_angle_beta   100.09870348
_cell_angle_gamma   108.62550524
_symmetry_Int_Tables_number   1
_chemical_formula_structural   Li2Y2Mo(PSe)2
_chemical_formula_sum   'Li2 Y2 Mo1 P2 Se2'
_cell_volume   172.12543983
_cell_formula_units_Z   1
loop_
 _symmetry_equiv_pos_site_id
 _symmetry_equiv_pos_as_xyz
  1  'x, y, z'
loop_
 _atom_site_type_symbol
 _atom_site_label
 _atom_site_symmetry_multiplicity
 _atom_site_fract_x
 _atom_site_fract_y
 _atom_site_fract_z
 _atom_site_occupancy
  Se  Se0  1  0.00000000  0.00000000  0.00000000  1
  Se  Se1  1  0.50000000  0.50000000  0.50000000  1
  P  P2  1  0.50000000  0.50000000  0.00000000  1
  P  P3  1  0.50000000  0.00000000  0.50000000  1
  Mo  Mo4  1  0.00000000  0.50000000  0.50000000  1
  Li  Li5  1  0.44241960  0.58308080  0.07689002  1
  Li  Li6  1  0.58018136  0.51049854  0.93593294  1
  Y  Y7  1  0.18701911  0.45721001  0.22229172  1
  Y  Y8  1  0.43251623  0.27229972  0.79197551  1
