# generated using pymatgen
data_Li2Si4Te3F12
_symmetry_space_group_name_H-M   'P 1'
_cell_length_a   8.14602123
_cell_length_b   8.14602123
_cell_length_c   19.41010709
_cell_angle_alpha   90.00000000
_cell_angle_beta   90.00000000
_cell_angle_gamma   90.00000000
_symmetry_Int_Tables_number   1
_chemical_formula_structural   Li2Si4Te3F12
_chemical_formula_sum   'Li8 Si16 Te12 F48'
_cell_volume   1288.00932286
_cell_formula_units_Z   4
loop_
 _symmetry_equiv_pos_site_id
 _symmetry_equiv_pos_as_xyz
  1  'x, y, z'
loop_
 _atom_site_type_symbol
 _atom_site_label
 _atom_site_symmetry_multiplicity
 _atom_site_fract_x
 _atom_site_fract_y
 _atom_site_fract_z
 _atom_site_occupancy
  F  F0  1  0.54875015  0.80466931  0.47742924  1
  F  F1  1  -0.04875015  -0.80466931  0.97742924  1
  F  F2  1  -0.55466931  1.29875015  0.72742924  1
  F  F3  1  1.05466931  -0.29875015  1.22742924  1
  F  F4  1  -0.04875015  0.80466931  0.02257076  1
  F  F5  1  0.54875015  -0.80466931  -0.47742924  1
  F  F6  1  1.05466931  1.29875015  -0.22742924  1
  F  F7  1  -0.55466931  -0.29875015  0.27257076  1
  F  F8  1  -0.54875015  -0.80466931  -0.47742924  1
  F  F9  1  1.04875015  0.80466931  0.02257076  1
  F  F10  1  1.55466931  -0.29875015  0.27257076  1
  F  F11  1  -0.05466931  1.29875015  -0.22742924  1
  F  F12  1  1.04875015  -0.80466931  0.97742924  1
  F  F13  1  -0.54875015  0.80466931  0.47742924  1
  F  F14  1  -0.05466931  -0.29875015  1.22742924  1
  F  F15  1  1.55466931  1.29875015  0.72742924  1
  F  F16  1  1.04875015  1.30466931  0.97742924  1
  F  F17  1  0.45124985  -0.30466931  1.47742924  1
  F  F18  1  -0.05466931  1.79875015  1.22742924  1
  F  F19  1  1.55466931  0.20124985  1.72742924  1
  F  F20  1  0.45124985  1.30466931  0.52257076  1
  F  F21  1  1.04875015  -0.30466931  0.02257076  1
  F  F22  1  1.55466931  1.79875015  0.27257076  1
  F  F23  1  -0.05466931  0.20124985  0.77257076  1
  F  F24  1  -0.04875015  -0.30466931  0.02257076  1
  F  F25  1  1.54875015  1.30466931  0.52257076  1
  F  F26  1  2.05466931  0.20124985  0.77257076  1
  F  F27  1  0.44533069  1.79875015  0.27257076  1
  F  F28  1  1.54875015  -0.30466931  1.47742924  1
  F  F29  1  -0.04875015  1.30466931  0.97742924  1
  F  F30  1  0.44533069  0.20124985  1.72742924  1
  F  F31  1  2.05466931  1.79875015  1.22742924  1
  F  F32  1  0.26720574  0.00000000  0.00000000  1
  F  F33  1  0.23279426  -0.00000000  0.50000000  1
  F  F34  1  0.25000000  0.01720574  0.25000000  1
  F  F35  1  0.25000000  0.98279426  0.75000000  1
  F  F36  1  0.73279426  0.00000000  0.00000000  1
  F  F37  1  0.76720574  -0.00000000  0.50000000  1
  F  F38  1  0.75000000  0.98279426  0.75000000  1
  F  F39  1  0.75000000  0.01720574  0.25000000  1
  F  F40  1  0.76720574  0.50000000  0.50000000  1
  F  F41  1  0.73279426  0.50000000  0.00000000  1
  F  F42  1  0.75000000  0.51720574  0.75000000  1
  F  F43  1  0.75000000  0.48279426  0.25000000  1
  F  F44  1  0.23279426  0.50000000  0.50000000  1
  F  F45  1  0.26720574  0.50000000  0.00000000  1
  F  F46  1  0.25000000  0.48279426  0.25000000  1
  F  F47  1  0.25000000  0.51720574  0.75000000  1
  Li  Li48  1  0.00000000  0.00000000  0.00000000  1
  Li  Li49  1  0.50000000  0.00000000  0.50000000  1
  Li  Li50  1  0.25000000  0.75000000  0.25000000  1
  Li  Li51  1  0.25000000  0.25000000  0.75000000  1
  Li  Li52  1  0.50000000  0.50000000  0.50000000  1
  Li  Li53  1  0.00000000  0.50000000  0.00000000  1
  Li  Li54  1  0.75000000  0.25000000  0.75000000  1
  Li  Li55  1  0.75000000  0.75000000  0.25000000  1
  Si  Si56  1  0.31432556  0.56432556  0.87500000  1
  Si  Si57  1  0.18567444  0.43567444  0.37500000  1
  Si  Si58  1  0.68567444  0.06432556  0.12500000  1
  Si  Si59  1  0.81432556  0.93567444  0.62500000  1
  Si  Si60  1  0.68567444  0.43567444  0.12500000  1
  Si  Si61  1  0.81432556  0.56432556  0.62500000  1
  Si  Si62  1  0.31432556  0.93567444  0.87500000  1
  Si  Si63  1  0.18567444  0.06432556  0.37500000  1
  Si  Si64  1  0.81432556  0.06432556  0.37500000  1
  Si  Si65  1  0.68567444  0.93567444  0.87500000  1
  Si  Si66  1  0.18567444  0.56432556  0.62500000  1
  Si  Si67  1  0.31432556  0.43567444  0.12500000  1
  Si  Si68  1  0.18567444  0.93567444  0.62500000  1
  Si  Si69  1  0.31432556  0.06432556  0.12500000  1
  Si  Si70  1  0.81432556  0.43567444  0.37500000  1
  Si  Si71  1  0.68567444  0.56432556  0.87500000  1
  Te  Te72  1  0.00000000  0.00000000  0.50000000  1
  Te  Te73  1  0.50000000  0.00000000  0.00000000  1
  Te  Te74  1  0.25000000  0.75000000  0.75000000  1
  Te  Te75  1  0.25000000  0.25000000  0.25000000  1
  Te  Te76  1  0.50000000  0.50000000  0.00000000  1
  Te  Te77  1  0.00000000  0.50000000  0.50000000  1
  Te  Te78  1  0.75000000  0.25000000  0.25000000  1
  Te  Te79  1  0.75000000  0.75000000  0.75000000  1
  Te  Te80  1  0.00000000  0.25000000  0.37500000  1
  Te  Te81  1  0.00000000  0.75000000  0.62500000  1
  Te  Te82  1  0.50000000  0.75000000  0.87500000  1
  Te  Te83  1  0.50000000  0.25000000  0.12500000  1
