# generated using pymatgen
data_LiF
_symmetry_space_group_name_H-M   'P 1'
_cell_length_a   7.53994880
_cell_length_b   6.84741572
_cell_length_c   6.67482438
_cell_angle_alpha   90.00000000
_cell_angle_beta   90.00000000
_cell_angle_gamma   90.00000000
_symmetry_Int_Tables_number   1
_chemical_formula_structural   LiF
_chemical_formula_sum   'Li10 F10'
_cell_volume   344.61560215
_cell_formula_units_Z   10
loop_
 _symmetry_equiv_pos_site_id
 _symmetry_equiv_pos_as_xyz
  1  'x, y, z'
loop_
 _atom_site_type_symbol
 _atom_site_label
 _atom_site_symmetry_multiplicity
 _atom_site_fract_x
 _atom_site_fract_y
 _atom_site_fract_z
 _atom_site_occupancy
  F  F0  1  0.00000000  0.00000000  0.28329228  1
  F  F1  1  0.50000000  0.50000000  0.71670772  1
  F  F2  1  0.00000000  0.00000000  0.71670772  1
  F  F3  1  0.50000000  0.50000000  0.28329228  1
  F  F4  1  0.63945588  0.62875713  0.50000000  1
  F  F5  1  0.36054412  0.37124287  0.50000000  1
  F  F6  1  0.86054412  0.12875713  0.50000000  1
  F  F7  1  0.13945588  0.87124287  0.50000000  1
  F  F8  1  0.00000000  0.50000000  0.00000000  1
  F  F9  1  0.50000000  0.00000000  0.00000000  1
  Li  Li10  1  0.82094591  0.63098228  0.00000000  1
  Li  Li11  1  -0.82094591  -0.63098228  0.00000000  1
  Li  Li12  1  -0.32094591  1.13098228  0.00000000  1
  Li  Li13  1  1.32094591  -0.13098228  -0.00000000  1
  Li  Li14  1  0.00000000  0.50000000  0.50000000  1
  Li  Li15  1  0.50000000  0.00000000  0.50000000  1
  Li  Li16  1  0.00000000  0.50000000  0.21480104  1
  Li  Li17  1  0.50000000  0.00000000  0.78519896  1
  Li  Li18  1  0.00000000  0.50000000  0.78519896  1
  Li  Li19  1  0.50000000  0.00000000  0.21480104  1
