# generated using pymatgen
data_LiF
_symmetry_space_group_name_H-M   'P 1'
_cell_length_a   6.26426071
_cell_length_b   6.26426071
_cell_length_c   8.33576129
_cell_angle_alpha   90.00000000
_cell_angle_beta   90.00000000
_cell_angle_gamma   120.00000000
_symmetry_Int_Tables_number   1
_chemical_formula_structural   LiF
_chemical_formula_sum   'Li15 F15'
_cell_volume   283.27976235
_cell_formula_units_Z   15
loop_
 _symmetry_equiv_pos_site_id
 _symmetry_equiv_pos_as_xyz
  1  'x, y, z'
loop_
 _atom_site_type_symbol
 _atom_site_label
 _atom_site_symmetry_multiplicity
 _atom_site_fract_x
 _atom_site_fract_y
 _atom_site_fract_z
 _atom_site_occupancy
  F  F0  1  0.72651688  0.69921502  0.41948551  1
  F  F1  1  0.30078498  0.02730185  0.41948551  1
  F  F2  1  0.97269815  0.27348312  0.41948551  1
  F  F3  1  0.30078498  0.27348312  0.58051449  1
  F  F4  1  0.97269815  0.69921502  0.58051449  1
  F  F5  1  0.72651688  0.02730185  0.58051449  1
  F  F6  1  0.00000000  0.00000000  0.50000000  1
  F  F7  1  0.04084355  0.95991559  0.65649591  1
  F  F8  1  0.04008441  0.08092795  0.65649591  1
  F  F9  1  0.91907205  0.95915645  0.65649591  1
  F  F10  1  0.04008441  0.95915645  0.34350409  1
  F  F11  1  0.91907205  0.95991559  0.34350409  1
  F  F12  1  0.04084355  0.08092795  0.34350409  1
  F  F13  1  0.00000000  0.00000000  0.73643400  1
  F  F14  1  0.00000000  0.00000000  0.26356600  1
  Li  Li15  1  0.66666667  0.33333333  0.50000000  1
  Li  Li16  1  0.30032503  0.79012831  0.72210105  1
  Li  Li17  1  -0.79012831  -0.48980327  0.72210105  1
  Li  Li18  1  0.48980327  -0.30032503  0.72210105  1
  Li  Li19  1  -0.79012831  -0.30032503  -0.72210105  1
  Li  Li20  1  0.48980327  0.79012831  -0.72210105  1
  Li  Li21  1  0.30032503  -0.48980327  -0.72210105  1
  Li  Li22  1  0.70362500  0.09199475  0.81241827  1
  Li  Li23  1  0.90800525  0.61163025  0.81241827  1
  Li  Li24  1  0.38836975  0.29637500  0.81241827  1
  Li  Li25  1  0.90800525  0.29637500  0.18758173  1
  Li  Li26  1  0.38836975  0.09199475  0.18758173  1
  Li  Li27  1  0.70362500  0.61163025  0.18758173  1
  Li  Li28  1  0.00000000  0.00000000  0.13734639  1
  Li  Li29  1  0.00000000  0.00000000  0.86265361  1
