# generated using pymatgen
data_LiF
_symmetry_space_group_name_H-M   'P 1'
_cell_length_a   9.38971543
_cell_length_b   9.38971543
_cell_length_c   11.31465566
_cell_angle_alpha   90.00000000
_cell_angle_beta   90.00000000
_cell_angle_gamma   120.00000000
_symmetry_Int_Tables_number   1
_chemical_formula_structural   LiF
_chemical_formula_sum   'Li25 F25'
_cell_volume   863.92657644
_cell_formula_units_Z   25
loop_
 _symmetry_equiv_pos_site_id
 _symmetry_equiv_pos_as_xyz
  1  'x, y, z'
loop_
 _atom_site_type_symbol
 _atom_site_label
 _atom_site_symmetry_multiplicity
 _atom_site_fract_x
 _atom_site_fract_y
 _atom_site_fract_z
 _atom_site_occupancy
  F  F0  1  0.13355850  0.86644150  -0.00000000  1
  F  F1  1  0.13355850  0.26711699  0.00000000  1
  F  F2  1  0.73288301  0.86644150  0.00000000  1
  F  F3  1  0.33333333  0.66666667  0.00000000  1
  F  F4  1  0.20185549  0.29420621  0.58914384  1
  F  F5  1  0.70579379  0.90764927  0.58914384  1
  F  F6  1  0.09235073  0.79814451  0.58914384  1
  F  F7  1  0.70579379  0.79814451  0.41085616  1
  F  F8  1  0.09235073  0.29420621  0.41085616  1
  F  F9  1  0.20185549  0.90764927  0.41085616  1
  F  F10  1  0.66666667  0.33333333  0.96732355  1
  F  F11  1  0.66666667  0.33333333  0.03267645  1
  F  F12  1  0.66666667  0.33333333  0.50000000  1
  F  F13  1  0.59289777  0.40710223  0.50000000  1
  F  F14  1  0.59289777  0.18579554  0.50000000  1
  F  F15  1  0.81420446  0.40710223  0.50000000  1
  F  F16  1  0.41059300  0.40323113  0.79494948  1
  F  F17  1  0.59676887  0.00736187  0.79494948  1
  F  F18  1  0.99263813  0.58940700  0.79494948  1
  F  F19  1  0.59676887  0.58940700  0.20505052  1
  F  F20  1  0.99263813  0.40323113  0.20505052  1
  F  F21  1  0.41059300  0.00736187  0.20505052  1
  F  F22  1  0.26630184  0.73369816  0.50000000  1
  F  F23  1  0.26630184  0.53260368  0.50000000  1
  F  F24  1  0.46739632  0.73369816  0.50000000  1
  Li  Li25  1  0.00000000  0.00000000  0.31774960  1
  Li  Li26  1  0.00000000  0.00000000  0.68225040  1
  Li  Li27  1  0.05572977  0.71487494  0.24185024  1
  Li  Li28  1  -0.71487494  -0.65914517  0.24185024  1
  Li  Li29  1  0.65914517  -0.05572977  0.24185024  1
  Li  Li30  1  -0.71487494  -0.05572977  -0.24185024  1
  Li  Li31  1  0.65914517  0.71487494  -0.24185024  1
  Li  Li32  1  0.05572977  -0.65914517  -0.24185024  1
  Li  Li33  1  0.66666667  0.33333333  0.86652322  1
  Li  Li34  1  0.66666667  0.33333333  0.13347678  1
  Li  Li35  1  0.54761922  0.29081299  0.37050172  1
  Li  Li36  1  0.70918701  0.25680623  0.37050172  1
  Li  Li37  1  0.74319377  0.45238078  0.37050172  1
  Li  Li38  1  0.70918701  0.45238078  0.62949828  1
  Li  Li39  1  0.74319377  0.29081299  0.62949828  1
  Li  Li40  1  0.54761922  0.25680623  0.62949828  1
  Li  Li41  1  0.94134750  0.61099384  0.66254173  1
  Li  Li42  1  0.38900616  0.33035366  0.66254173  1
  Li  Li43  1  0.66964634  0.05865250  0.66254173  1
  Li  Li44  1  0.38900616  0.05865250  0.33745827  1
  Li  Li45  1  0.66964634  0.61099384  0.33745827  1
  Li  Li46  1  0.94134750  0.33035366  0.33745827  1
  Li  Li47  1  0.50893686  0.49106314  0.50000000  1
  Li  Li48  1  0.50893686  0.01787372  0.50000000  1
  Li  Li49  1  0.98212628  0.49106314  0.50000000  1
