# generated using pymatgen
data_Li2Y2As3P2Se
_symmetry_space_group_name_H-M   'P 1'
_cell_length_a   5.26926344
_cell_length_b   5.22394782
_cell_length_c   7.03403649
_cell_angle_alpha   94.25824482
_cell_angle_beta   99.27357194
_cell_angle_gamma   107.10367703
_symmetry_Int_Tables_number   1
_chemical_formula_structural   Li2Y2As3P2Se
_chemical_formula_sum   'Li2 Y2 As3 P2 Se1'
_cell_volume   181.11455695
_cell_formula_units_Z   1
loop_
 _symmetry_equiv_pos_site_id
 _symmetry_equiv_pos_as_xyz
  1  'x, y, z'
loop_
 _atom_site_type_symbol
 _atom_site_label
 _atom_site_symmetry_multiplicity
 _atom_site_fract_x
 _atom_site_fract_y
 _atom_site_fract_z
 _atom_site_occupancy
  Se  Se0  1  0.00000000  0.00000000  0.00000000  1
  P  P1  1  0.50000000  0.50000000  0.50000000  1
  P  P2  1  0.25000000  0.25000000  0.25000000  1
  As  As3  1  0.75000000  0.25000000  0.00000000  1
  As  As4  1  0.25000000  0.75000000  0.50000000  1
  As  As5  1  0.01142117  0.42516968  0.01119024  1
  Li  Li6  1  0.03811834  0.39671083  0.42485810  1
  Li  Li7  1  0.53918201  0.13955010  0.58168219  1
  Y  Y8  1  0.49539875  0.64605595  0.16473572  1
  Y  Y9  1  0.67755793  0.54615649  0.65101271  1
