# generated using pymatgen
data_LiF
_symmetry_space_group_name_H-M   'P 1'
_cell_length_a   6.80122689
_cell_length_b   12.60973343
_cell_length_c   5.54484049
_cell_angle_alpha   90.00000000
_cell_angle_beta   90.00000000
_cell_angle_gamma   90.00000000
_symmetry_Int_Tables_number   1
_chemical_formula_structural   LiF
_chemical_formula_sum   'Li20 F20'
_cell_volume   475.53471398
_cell_formula_units_Z   20
loop_
 _symmetry_equiv_pos_site_id
 _symmetry_equiv_pos_as_xyz
  1  'x, y, z'
loop_
 _atom_site_type_symbol
 _atom_site_label
 _atom_site_symmetry_multiplicity
 _atom_site_fract_x
 _atom_site_fract_y
 _atom_site_fract_z
 _atom_site_occupancy
  F  F0  1  0.78548316  0.26994162  0.71046928  1
  F  F1  1  -0.78548316  -0.26994162  0.71046928  1
  F  F2  1  -0.28548316  0.76994162  -0.71046928  1
  F  F3  1  1.28548316  0.23005838  -0.71046928  1
  F  F4  1  -0.78548316  -0.26994162  -0.71046928  1
  F  F5  1  0.78548316  0.26994162  -0.71046928  1
  F  F6  1  1.28548316  0.23005838  0.71046928  1
  F  F7  1  -0.28548316  0.76994162  0.71046928  1
  F  F8  1  0.28108696  0.00229404  0.50000000  1
  F  F9  1  0.71891304  0.99770596  0.50000000  1
  F  F10  1  0.21891304  0.50229404  0.50000000  1
  F  F11  1  0.78108696  0.49770596  0.50000000  1
  F  F12  1  0.13104984  0.69027159  -0.00000000  1
  F  F13  1  0.86895016  0.30972841  0.00000000  1
  F  F14  1  0.36895016  0.19027159  -0.00000000  1
  F  F15  1  0.63104984  0.80972841  0.00000000  1
  F  F16  1  0.00000000  0.50000000  -0.00000000  1
  F  F17  1  0.50000000  0.00000000  0.00000000  1
  F  F18  1  0.00000000  0.50000000  0.50000000  1
  F  F19  1  0.50000000  0.00000000  0.50000000  1
  Li  Li20  1  0.20815538  0.43821833  0.87173697  1
  Li  Li21  1  0.79184462  0.56178167  0.87173697  1
  Li  Li22  1  0.29184462  0.93821833  0.12826303  1
  Li  Li23  1  0.70815538  0.06178167  0.12826303  1
  Li  Li24  1  0.79184462  0.56178167  0.12826303  1
  Li  Li25  1  0.20815538  0.43821833  0.12826303  1
  Li  Li26  1  0.70815538  0.06178167  0.87173697  1
  Li  Li27  1  0.29184462  0.93821833  0.87173697  1
  Li  Li28  1  0.00000000  0.00000000  0.00000000  1
  Li  Li29  1  0.50000000  0.50000000  -0.00000000  1
  Li  Li30  1  0.55463441  0.62919113  0.50000000  1
  Li  Li31  1  0.44536559  0.37080887  0.50000000  1
  Li  Li32  1  0.94536559  0.12919113  0.50000000  1
  Li  Li33  1  0.05463441  0.87080887  0.50000000  1
  Li  Li34  1  0.00000000  0.00000000  0.50000000  1
  Li  Li35  1  0.50000000  0.50000000  0.50000000  1
  Li  Li36  1  0.89267572  0.67111858  0.50000000  1
  Li  Li37  1  0.10732428  0.32888142  0.50000000  1
  Li  Li38  1  0.60732428  0.17111858  0.50000000  1
  Li  Li39  1  0.39267572  0.82888142  0.50000000  1
