# generated using pymatgen
data_LiF
_symmetry_space_group_name_H-M   'P 1'
_cell_length_a   14.38395973
_cell_length_b   14.38395973
_cell_length_c   11.07240158
_cell_angle_alpha   90.00000000
_cell_angle_beta   90.00000000
_cell_angle_gamma   90.00000000
_symmetry_Int_Tables_number   1
_chemical_formula_structural   LiF
_chemical_formula_sum   'Li64 F64'
_cell_volume   2290.86103624
_cell_formula_units_Z   64
loop_
 _symmetry_equiv_pos_site_id
 _symmetry_equiv_pos_as_xyz
  1  'x, y, z'
loop_
 _atom_site_type_symbol
 _atom_site_label
 _atom_site_symmetry_multiplicity
 _atom_site_fract_x
 _atom_site_fract_y
 _atom_site_fract_z
 _atom_site_occupancy
  F  F0  1  0.66296925  0.38169896  0.93381555  1
  F  F1  1  -0.16296925  -0.38169896  1.43381555  1
  F  F2  1  -0.13169896  1.41296925  1.18381555  1
  F  F3  1  0.63169896  -0.41296925  1.68381555  1
  F  F4  1  -0.16296925  0.38169896  -0.93381555  1
  F  F5  1  0.66296925  -0.38169896  -0.43381555  1
  F  F6  1  0.63169896  1.41296925  -0.18381555  1
  F  F7  1  -0.13169896  -0.41296925  -0.68381555  1
  F  F8  1  -0.66296925  -0.38169896  -0.93381555  1
  F  F9  1  1.16296925  0.38169896  -0.43381555  1
  F  F10  1  1.13169896  -0.41296925  -0.18381555  1
  F  F11  1  0.36830104  1.41296925  -0.68381555  1
  F  F12  1  1.16296925  -0.38169896  0.93381555  1
  F  F13  1  -0.66296925  0.38169896  1.43381555  1
  F  F14  1  0.36830104  -0.41296925  1.18381555  1
  F  F15  1  1.13169896  1.41296925  1.68381555  1
  F  F16  1  1.16296925  0.88169896  1.43381555  1
  F  F17  1  0.33703075  0.11830104  1.93381555  1
  F  F18  1  0.36830104  1.91296925  1.68381555  1
  F  F19  1  1.13169896  0.08703075  2.18381555  1
  F  F20  1  0.33703075  0.88169896  -0.43381555  1
  F  F21  1  1.16296925  0.11830104  0.06618445  1
  F  F22  1  1.13169896  1.91296925  0.31618445  1
  F  F23  1  0.36830104  0.08703075  -0.18381555  1
  F  F24  1  -0.16296925  0.11830104  -0.43381555  1
  F  F25  1  1.66296925  0.88169896  0.06618445  1
  F  F26  1  1.63169896  0.08703075  0.31618445  1
  F  F27  1  0.86830104  1.91296925  -0.18381555  1
  F  F28  1  1.66296925  0.11830104  1.43381555  1
  F  F29  1  -0.16296925  0.88169896  1.93381555  1
  F  F30  1  0.86830104  0.08703075  1.68381555  1
  F  F31  1  1.63169896  1.91296925  2.18381555  1
  F  F32  1  0.61371657  0.89738889  0.43849792  1
  F  F33  1  0.88628343  0.10261111  0.93849792  1
  F  F34  1  0.35261111  0.36371657  0.68849792  1
  F  F35  1  0.14738889  0.63628343  0.18849792  1
  F  F36  1  0.88628343  0.89738889  0.56150208  1
  F  F37  1  0.61371657  0.10261111  0.06150208  1
  F  F38  1  0.14738889  0.36371657  0.31150208  1
  F  F39  1  0.35261111  0.63628343  0.81150208  1
  F  F40  1  0.38628343  0.10261111  0.56150208  1
  F  F41  1  0.11371657  0.89738889  0.06150208  1
  F  F42  1  0.64738889  0.63628343  0.31150208  1
  F  F43  1  0.85261111  0.36371657  0.81150208  1
  F  F44  1  0.11371657  0.10261111  0.43849792  1
  F  F45  1  0.38628343  0.89738889  0.93849792  1
  F  F46  1  0.85261111  0.63628343  0.68849792  1
  F  F47  1  0.64738889  0.36371657  0.18849792  1
  F  F48  1  0.11371657  0.39738889  0.93849792  1
  F  F49  1  0.38628343  0.60261111  0.43849792  1
  F  F50  1  0.85261111  0.86371657  0.18849792  1
  F  F51  1  0.64738889  0.13628343  0.68849792  1
  F  F52  1  0.38628343  0.39738889  0.06150208  1
  F  F53  1  0.11371657  0.60261111  0.56150208  1
  F  F54  1  0.64738889  0.86371657  0.81150208  1
  F  F55  1  0.85261111  0.13628343  0.31150208  1
  F  F56  1  0.88628343  0.60261111  0.06150208  1
  F  F57  1  0.61371657  0.39738889  0.56150208  1
  F  F58  1  0.14738889  0.13628343  0.81150208  1
  F  F59  1  0.35261111  0.86371657  0.31150208  1
  F  F60  1  0.61371657  0.60261111  0.93849792  1
  F  F61  1  0.88628343  0.39738889  0.43849792  1
  F  F62  1  0.35261111  0.13628343  0.18849792  1
  F  F63  1  0.14738889  0.86371657  0.68849792  1
  Li  Li64  1  0.83764773  0.17686024  0.95235224  1
  Li  Li65  1  0.66235227  0.82313976  0.45235224  1
  Li  Li66  1  0.07313976  0.58764773  0.20235224  1
  Li  Li67  1  0.42686024  0.41235227  0.70235224  1
  Li  Li68  1  0.66235227  0.17686024  0.04764776  1
  Li  Li69  1  0.83764773  0.82313976  0.54764776  1
  Li  Li70  1  0.42686024  0.58764773  0.79764776  1
  Li  Li71  1  0.07313976  0.41235227  0.29764776  1
  Li  Li72  1  0.16235227  0.82313976  0.04764776  1
  Li  Li73  1  0.33764773  0.17686024  0.54764776  1
  Li  Li74  1  0.92686024  0.41235227  0.79764776  1
  Li  Li75  1  0.57313976  0.58764773  0.29764776  1
  Li  Li76  1  0.33764773  0.82313976  0.95235224  1
  Li  Li77  1  0.16235227  0.17686024  0.45235224  1
  Li  Li78  1  0.57313976  0.41235227  0.20235224  1
  Li  Li79  1  0.92686024  0.58764773  0.70235224  1
  Li  Li80  1  0.33764773  0.67686024  0.45235224  1
  Li  Li81  1  0.16235227  0.32313976  0.95235224  1
  Li  Li82  1  0.57313976  0.08764773  0.70235224  1
  Li  Li83  1  0.92686024  0.91235227  0.20235224  1
  Li  Li84  1  0.16235227  0.67686024  0.54764776  1
  Li  Li85  1  0.33764773  0.32313976  0.04764776  1
  Li  Li86  1  0.92686024  0.08764773  0.29764776  1
  Li  Li87  1  0.57313976  0.91235227  0.79764776  1
  Li  Li88  1  0.66235227  0.32313976  0.54764776  1
  Li  Li89  1  0.83764773  0.67686024  0.04764776  1
  Li  Li90  1  0.42686024  0.91235227  0.29764776  1
  Li  Li91  1  0.07313976  0.08764773  0.79764776  1
  Li  Li92  1  0.83764773  0.32313976  0.45235224  1
  Li  Li93  1  0.66235227  0.67686024  0.95235224  1
  Li  Li94  1  0.07313976  0.91235227  0.70235224  1
  Li  Li95  1  0.42686024  0.08764773  0.20235224  1
  Li  Li96  1  0.00000000  0.00000000  0.00000000  1
  Li  Li97  1  0.50000000  0.00000000  0.50000000  1
  Li  Li98  1  0.25000000  0.75000000  0.25000000  1
  Li  Li99  1  0.25000000  0.25000000  0.75000000  1
  Li  Li100  1  0.50000000  0.00000000  0.00000000  1
  Li  Li101  1  0.00000000  0.00000000  0.50000000  1
  Li  Li102  1  0.25000000  0.75000000  0.75000000  1
  Li  Li103  1  0.25000000  0.25000000  0.25000000  1
  Li  Li104  1  0.50000000  0.50000000  0.50000000  1
  Li  Li105  1  0.00000000  0.50000000  0.00000000  1
  Li  Li106  1  0.75000000  0.25000000  0.75000000  1
  Li  Li107  1  0.75000000  0.75000000  0.25000000  1
  Li  Li108  1  0.00000000  0.50000000  0.50000000  1
  Li  Li109  1  0.50000000  0.50000000  0.00000000  1
  Li  Li110  1  0.75000000  0.25000000  0.25000000  1
  Li  Li111  1  0.75000000  0.75000000  0.75000000  1
  Li  Li112  1  0.31300367  0.00000000  0.25000000  1
  Li  Li113  1  0.18699633  0.00000000  0.75000000  1
  Li  Li114  1  0.25000000  0.06300367  0.50000000  1
  Li  Li115  1  0.25000000  0.93699633  0.00000000  1
  Li  Li116  1  0.68699633  -0.00000000  0.75000000  1
  Li  Li117  1  0.81300367  0.00000000  0.25000000  1
  Li  Li118  1  0.75000000  0.93699633  0.50000000  1
  Li  Li119  1  0.75000000  0.06300367  0.00000000  1
  Li  Li120  1  0.81300367  0.50000000  0.75000000  1
  Li  Li121  1  0.68699633  0.50000000  0.25000000  1
  Li  Li122  1  0.75000000  0.56300367  0.00000000  1
  Li  Li123  1  0.75000000  0.43699633  0.50000000  1
  Li  Li124  1  0.18699633  0.50000000  0.25000000  1
  Li  Li125  1  0.31300367  0.50000000  0.75000000  1
  Li  Li126  1  0.25000000  0.43699633  0.00000000  1
  Li  Li127  1  0.25000000  0.56300367  0.50000000  1
