# generated using pymatgen
data_LiF
_symmetry_space_group_name_H-M   'P 1'
_cell_length_a   12.96453081
_cell_length_b   9.26500941
_cell_length_c   7.70791034
_cell_angle_alpha   90.00000000
_cell_angle_beta   90.00000000
_cell_angle_gamma   90.00000000
_symmetry_Int_Tables_number   1
_chemical_formula_structural   LiF
_chemical_formula_sum   'Li28 F28'
_cell_volume   925.84721177
_cell_formula_units_Z   28
loop_
 _symmetry_equiv_pos_site_id
 _symmetry_equiv_pos_as_xyz
  1  'x, y, z'
loop_
 _atom_site_type_symbol
 _atom_site_label
 _atom_site_symmetry_multiplicity
 _atom_site_fract_x
 _atom_site_fract_y
 _atom_site_fract_z
 _atom_site_occupancy
  F  F0  1  0.92643063  0.25000000  0.02734432  1
  F  F1  1  0.57356937  0.75000000  0.52734432  1
  F  F2  1  0.07356937  0.75000000  0.97265568  1
  F  F3  1  0.42643063  0.25000000  0.47265568  1
  F  F4  1  0.92851655  0.25000000  0.95279276  1
  F  F5  1  0.57148345  0.75000000  0.45279276  1
  F  F6  1  0.07148345  0.75000000  0.04720724  1
  F  F7  1  0.42851655  0.25000000  0.54720724  1
  F  F8  1  0.00000000  0.00000000  0.00000000  1
  F  F9  1  0.50000000  0.00000000  0.50000000  1
  F  F10  1  0.00000000  0.50000000  0.00000000  1
  F  F11  1  0.50000000  0.50000000  0.50000000  1
  F  F12  1  0.28177589  0.20287206  0.56917296  1
  F  F13  1  0.21822411  0.79712794  0.06917296  1
  F  F14  1  0.71822411  0.70287206  0.43082704  1
  F  F15  1  0.78177589  0.29712794  0.93082704  1
  F  F16  1  0.71822411  0.79712794  0.43082704  1
  F  F17  1  0.78177589  0.20287206  0.93082704  1
  F  F18  1  0.28177589  0.29712794  0.56917296  1
  F  F19  1  0.21822411  0.70287206  0.06917296  1
  F  F20  1  0.14074778  0.12652837  0.81856798  1
  F  F21  1  0.35925222  0.87347163  0.31856798  1
  F  F22  1  0.85925222  0.62652837  0.18143202  1
  F  F23  1  0.64074778  0.37347163  0.68143202  1
  F  F24  1  0.85925222  0.87347163  0.18143202  1
  F  F25  1  0.64074778  0.12652837  0.68143202  1
  F  F26  1  0.14074778  0.37347163  0.81856798  1
  F  F27  1  0.35925222  0.62652837  0.31856798  1
  Li  Li28  1  0.67775213  0.25000000  0.32137548  1
  Li  Li29  1  0.82224787  0.75000000  0.82137548  1
  Li  Li30  1  0.32224787  0.75000000  0.67862452  1
  Li  Li31  1  0.17775213  0.25000000  0.17862452  1
  Li  Li32  1  0.47456077  0.25000000  0.17080090  1
  Li  Li33  1  0.02543923  0.75000000  0.67080090  1
  Li  Li34  1  0.52543923  0.75000000  0.82919910  1
  Li  Li35  1  0.97456077  0.25000000  0.32919910  1
  Li  Li36  1  0.00000000  0.00000000  0.50000000  1
  Li  Li37  1  0.50000000  0.00000000  0.00000000  1
  Li  Li38  1  0.00000000  0.50000000  0.50000000  1
  Li  Li39  1  0.50000000  0.50000000  0.00000000  1
  Li  Li40  1  0.24434208  0.89483283  0.68961010  1
  Li  Li41  1  0.25565792  -0.89483283  1.18961010  1
  Li  Li42  1  -0.24434208  1.39483283  -0.68961010  1
  Li  Li43  1  0.74434208  -0.39483283  -0.18961010  1
  Li  Li44  1  -0.24434208  -0.89483283  -0.68961010  1
  Li  Li45  1  0.74434208  0.89483283  -0.18961010  1
  Li  Li46  1  0.24434208  -0.39483283  0.68961010  1
  Li  Li47  1  0.25565792  1.39483283  1.18961010  1
  Li  Li48  1  0.90781930  0.07167490  0.11154392  1
  Li  Li49  1  0.59218070  0.92832510  0.61154392  1
  Li  Li50  1  0.09218070  0.57167490  0.88845608  1
  Li  Li51  1  0.40781930  0.42832510  0.38845608  1
  Li  Li52  1  0.09218070  0.92832510  0.88845608  1
  Li  Li53  1  0.40781930  0.07167490  0.38845608  1
  Li  Li54  1  0.90781930  0.42832510  0.11154392  1
  Li  Li55  1  0.59218070  0.57167490  0.61154392  1
