# generated using pymatgen
data_LiF
_symmetry_space_group_name_H-M   'P 1'
_cell_length_a   5.26753796
_cell_length_b   6.68537362
_cell_length_c   12.31363752
_cell_angle_alpha   90.00000000
_cell_angle_beta   90.00000000
_cell_angle_gamma   90.00000000
_symmetry_Int_Tables_number   1
_chemical_formula_structural   LiF
_chemical_formula_sum   'Li24 F24'
_cell_volume   433.63040134
_cell_formula_units_Z   24
loop_
 _symmetry_equiv_pos_site_id
 _symmetry_equiv_pos_as_xyz
  1  'x, y, z'
loop_
 _atom_site_type_symbol
 _atom_site_label
 _atom_site_symmetry_multiplicity
 _atom_site_fract_x
 _atom_site_fract_y
 _atom_site_fract_z
 _atom_site_occupancy
  F  F0  1  0.78738768  0.25000000  0.50010579  1
  F  F1  1  0.71261232  0.75000000  0.00010579  1
  F  F2  1  0.21261232  0.75000000  0.49989421  1
  F  F3  1  0.28738768  0.25000000  0.99989421  1
  F  F4  1  0.19365204  0.25000000  0.59831986  1
  F  F5  1  0.30634796  0.75000000  0.09831986  1
  F  F6  1  0.80634796  0.75000000  0.40168014  1
  F  F7  1  0.69365204  0.25000000  0.90168014  1
  F  F8  1  0.01505528  0.25000000  0.82986278  1
  F  F9  1  0.48494472  0.75000000  0.32986278  1
  F  F10  1  0.98494472  0.75000000  0.17013722  1
  F  F11  1  0.51505528  0.25000000  0.67013722  1
  F  F12  1  0.36902497  0.25000000  0.11334033  1
  F  F13  1  0.13097503  0.75000000  0.61334033  1
  F  F14  1  0.63097503  0.75000000  0.88665967  1
  F  F15  1  0.86902497  0.25000000  0.38665967  1
  F  F16  1  0.75766716  0.47173938  0.55184442  1
  F  F17  1  0.74233284  0.52826062  0.05184442  1
  F  F18  1  0.24233284  0.97173938  0.44815558  1
  F  F19  1  0.25766716  0.02826062  0.94815558  1
  F  F20  1  0.24233284  0.52826062  0.44815558  1
  F  F21  1  0.25766716  0.47173938  0.94815558  1
  F  F22  1  0.75766716  0.02826062  0.55184442  1
  F  F23  1  0.74233284  0.97173938  0.05184442  1
  Li  Li24  1  0.00000000  0.00000000  0.50000000  1
  Li  Li25  1  0.50000000  0.00000000  0.00000000  1
  Li  Li26  1  0.00000000  0.50000000  0.50000000  1
  Li  Li27  1  0.50000000  0.50000000  0.00000000  1
  Li  Li28  1  0.00000000  0.00000000  0.00000000  1
  Li  Li29  1  0.50000000  0.00000000  0.50000000  1
  Li  Li30  1  0.00000000  0.50000000  0.00000000  1
  Li  Li31  1  0.50000000  0.50000000  0.50000000  1
  Li  Li32  1  0.74181410  0.25000000  0.33185121  1
  Li  Li33  1  0.75818590  0.75000000  0.83185121  1
  Li  Li34  1  0.25818590  0.75000000  0.66814879  1
  Li  Li35  1  0.24181410  0.25000000  0.16814879  1
  Li  Li36  1  0.30101134  0.25000000  0.53692889  1
  Li  Li37  1  0.19898866  0.75000000  0.03692889  1
  Li  Li38  1  0.69898866  0.75000000  0.46307111  1
  Li  Li39  1  0.80101134  0.25000000  0.96307111  1
  Li  Li40  1  0.71583414  0.46864753  0.24545946  1
  Li  Li41  1  -0.21583414  -0.46864753  0.74545946  1
  Li  Li42  1  -0.71583414  0.96864753  -0.24545946  1
  Li  Li43  1  1.21583414  0.03135247  0.25454054  1
  Li  Li44  1  -0.71583414  -0.46864753  -0.24545946  1
  Li  Li45  1  1.21583414  0.46864753  0.25454054  1
  Li  Li46  1  0.71583414  0.03135247  0.24545946  1
  Li  Li47  1  -0.21583414  0.96864753  0.74545946  1
