# generated using pymatgen
data_LiF
_symmetry_space_group_name_H-M   'P 1'
_cell_length_a   16.68016063
_cell_length_b   5.62031428
_cell_length_c   12.91457526
_cell_angle_alpha   90.00000000
_cell_angle_beta   90.00000000
_cell_angle_gamma   90.00000000
_symmetry_Int_Tables_number   1
_chemical_formula_structural   LiF
_chemical_formula_sum   'Li52 F52'
_cell_volume   1210.71230787
_cell_formula_units_Z   52
loop_
 _symmetry_equiv_pos_site_id
 _symmetry_equiv_pos_as_xyz
  1  'x, y, z'
loop_
 _atom_site_type_symbol
 _atom_site_label
 _atom_site_symmetry_multiplicity
 _atom_site_fract_x
 _atom_site_fract_y
 _atom_site_fract_z
 _atom_site_occupancy
  F  F0  1  0.28391138  0.61473766  0.36981052  1
  F  F1  1  0.71608862  0.38526234  0.36981052  1
  F  F2  1  0.21608862  0.11473766  0.63018948  1
  F  F3  1  0.78391138  0.88526234  0.63018948  1
  F  F4  1  0.71608862  0.38526234  0.63018948  1
  F  F5  1  0.28391138  0.61473766  0.63018948  1
  F  F6  1  0.78391138  0.88526234  0.36981052  1
  F  F7  1  0.21608862  0.11473766  0.36981052  1
  F  F8  1  0.69164093  0.63813323  0.13395163  1
  F  F9  1  0.30835907  0.36186677  0.13395163  1
  F  F10  1  0.80835907  0.13813323  0.86604837  1
  F  F11  1  0.19164093  0.86186677  0.86604837  1
  F  F12  1  0.30835907  0.36186677  0.86604837  1
  F  F13  1  0.69164093  0.63813323  0.86604837  1
  F  F14  1  0.19164093  0.86186677  0.13395163  1
  F  F15  1  0.80835907  0.13813323  0.13395163  1
  F  F16  1  0.49733376  0.17489731  0.83754578  1
  F  F17  1  0.50266624  0.82510269  0.83754578  1
  F  F18  1  0.00266624  0.67489731  0.16245422  1
  F  F19  1  0.99733376  0.32510269  0.16245422  1
  F  F20  1  0.50266624  0.82510269  0.16245422  1
  F  F21  1  0.49733376  0.17489731  0.16245422  1
  F  F22  1  0.99733376  0.32510269  0.83754578  1
  F  F23  1  0.00266624  0.67489731  0.83754578  1
  F  F24  1  0.94698858  0.26399692  0.86182117  1
  F  F25  1  0.05301142  0.73600308  0.86182117  1
  F  F26  1  0.55301142  0.76399692  0.13817883  1
  F  F27  1  0.44698858  0.23600308  0.13817883  1
  F  F28  1  0.05301142  0.73600308  0.13817883  1
  F  F29  1  0.94698858  0.26399692  0.13817883  1
  F  F30  1  0.44698858  0.23600308  0.86182117  1
  F  F31  1  0.55301142  0.76399692  0.86182117  1
  F  F32  1  0.00000000  0.00000000  0.97689456  1
  F  F33  1  0.50000000  0.50000000  0.02310544  1
  F  F34  1  0.00000000  0.00000000  0.02310544  1
  F  F35  1  0.50000000  0.50000000  0.97689456  1
  F  F36  1  0.91812715  0.15304045  -0.00000000  1
  F  F37  1  0.08187285  0.84695955  -0.00000000  1
  F  F38  1  0.58187285  0.65304045  0.00000000  1
  F  F39  1  0.41812715  0.34695955  -0.00000000  1
  F  F40  1  0.69031794  0.96444394  0.50000000  1
  F  F41  1  0.30968206  0.03555606  0.50000000  1
  F  F42  1  0.80968206  0.46444394  0.50000000  1
  F  F43  1  0.19031794  0.53555606  0.50000000  1
  F  F44  1  0.59760995  0.69537809  0.24548031  1
  F  F45  1  0.40239005  0.30462191  0.24548031  1
  F  F46  1  0.90239005  0.19537809  0.75451969  1
  F  F47  1  0.09760995  0.80462191  0.75451969  1
  F  F48  1  0.40239005  0.30462191  0.75451969  1
  F  F49  1  0.59760995  0.69537809  0.75451969  1
  F  F50  1  0.09760995  0.80462191  0.24548031  1
  F  F51  1  0.90239005  0.19537809  0.24548031  1
  Li  Li52  1  0.68388509  0.35779137  0.50000000  1
  Li  Li53  1  0.31611491  0.64220863  0.50000000  1
  Li  Li54  1  0.81611491  0.85779137  0.50000000  1
  Li  Li55  1  0.18388509  0.14220863  0.50000000  1
  Li  Li56  1  0.00000000  0.50000000  0.83116555  1
  Li  Li57  1  0.50000000  0.00000000  0.16883445  1
  Li  Li58  1  0.00000000  0.50000000  0.16883445  1
  Li  Li59  1  0.50000000  0.00000000  0.83116555  1
  Li  Li60  1  0.07458864  0.95213598  0.73391079  1
  Li  Li61  1  -0.07458864  -0.95213598  0.73391079  1
  Li  Li62  1  0.42541136  1.45213598  -0.73391079  1
  Li  Li63  1  0.57458864  -0.45213598  -0.73391079  1
  Li  Li64  1  -0.07458864  -0.95213598  -0.73391079  1
  Li  Li65  1  0.07458864  0.95213598  -0.73391079  1
  Li  Li66  1  0.57458864  -0.45213598  0.73391079  1
  Li  Li67  1  0.42541136  1.45213598  0.73391079  1
  Li  Li68  1  0.00000000  0.00000000  0.41274150  1
  Li  Li69  1  0.50000000  0.50000000  0.58725850  1
  Li  Li70  1  0.00000000  0.00000000  0.58725850  1
  Li  Li71  1  0.50000000  0.50000000  0.41274150  1
  Li  Li72  1  0.00000000  0.50000000  -0.00000000  1
  Li  Li73  1  0.50000000  0.00000000  -0.00000000  1
  Li  Li74  1  0.00000000  0.00000000  0.71837177  1
  Li  Li75  1  0.50000000  0.50000000  0.28162823  1
  Li  Li76  1  0.00000000  0.00000000  0.28162823  1
  Li  Li77  1  0.50000000  0.50000000  0.71837177  1
  Li  Li78  1  0.71701515  0.52744379  0.32299677  1
  Li  Li79  1  0.28298485  0.47255621  0.32299677  1
  Li  Li80  1  0.78298485  0.02744379  0.67700323  1
  Li  Li81  1  0.21701515  0.97255621  0.67700323  1
  Li  Li82  1  0.28298485  0.47255621  0.67700323  1
  Li  Li83  1  0.71701515  0.52744379  0.67700323  1
  Li  Li84  1  0.21701515  0.97255621  0.32299677  1
  Li  Li85  1  0.78298485  0.02744379  0.32299677  1
  Li  Li86  1  0.66577619  0.54856596  0.24330143  1
  Li  Li87  1  0.33422381  0.45143404  0.24330143  1
  Li  Li88  1  0.83422381  0.04856596  0.75669857  1
  Li  Li89  1  0.16577619  0.95143404  0.75669857  1
  Li  Li90  1  0.33422381  0.45143404  0.75669857  1
  Li  Li91  1  0.66577619  0.54856596  0.75669857  1
  Li  Li92  1  0.16577619  0.95143404  0.24330143  1
  Li  Li93  1  0.83422381  0.04856596  0.24330143  1
  Li  Li94  1  0.82709486  0.42750167  0.40898393  1
  Li  Li95  1  0.17290514  0.57249833  0.40898393  1
  Li  Li96  1  0.67290514  0.92750167  0.59101607  1
  Li  Li97  1  0.32709486  0.07249833  0.59101607  1
  Li  Li98  1  0.17290514  0.57249833  0.59101607  1
  Li  Li99  1  0.82709486  0.42750167  0.59101607  1
  Li  Li100  1  0.32709486  0.07249833  0.40898393  1
  Li  Li101  1  0.67290514  0.92750167  0.40898393  1
  Li  Li102  1  0.00000000  0.50000000  0.50000000  1
  Li  Li103  1  0.50000000  0.00000000  0.50000000  1
