# generated using pymatgen
data_LiCu3Mo2PSe
_symmetry_space_group_name_H-M   'P 1'
_cell_length_a   4.55879156
_cell_length_b   4.86118365
_cell_length_c   6.20811636
_cell_angle_alpha   93.48922831
_cell_angle_beta   97.72213345
_cell_angle_gamma   103.84603374
_symmetry_Int_Tables_number   1
_chemical_formula_structural   LiCu3Mo2PSe
_chemical_formula_sum   'Li1 Cu3 Mo2 P1 Se1'
_cell_volume   131.74965623
_cell_formula_units_Z   1
loop_
 _symmetry_equiv_pos_site_id
 _symmetry_equiv_pos_as_xyz
  1  'x, y, z'
loop_
 _atom_site_type_symbol
 _atom_site_label
 _atom_site_symmetry_multiplicity
 _atom_site_fract_x
 _atom_site_fract_y
 _atom_site_fract_z
 _atom_site_occupancy
  P  P0  1  0.00000000  0.00000000  0.00000000  1
  Mo  Mo1  1  0.50000000  0.50000000  0.50000000  1
  Mo  Mo2  1  0.25000000  0.25000000  0.25000000  1
  Se  Se3  1  0.75000000  0.25000000  0.00000000  1
  Li  Li4  1  0.25000000  0.75000000  0.50000000  1
  Cu  Cu5  1  0.49704906  0.93292137  0.48804144  1
  Cu  Cu6  1  0.41475098  0.57417595  0.77284535  1
  Cu  Cu7  1  0.19732001  0.28236649  0.85114458  1
