# generated using pymatgen
data_LiF
_symmetry_space_group_name_H-M   'P 1'
_cell_length_a   6.46230599
_cell_length_b   6.93643353
_cell_length_c   7.58502344
_cell_angle_alpha   90.00000000
_cell_angle_beta   90.00000000
_cell_angle_gamma   90.00000000
_symmetry_Int_Tables_number   1
_chemical_formula_structural   LiF
_chemical_formula_sum   'Li24 F24'
_cell_volume   340.00137605
_cell_formula_units_Z   24
loop_
 _symmetry_equiv_pos_site_id
 _symmetry_equiv_pos_as_xyz
  1  'x, y, z'
loop_
 _atom_site_type_symbol
 _atom_site_label
 _atom_site_symmetry_multiplicity
 _atom_site_fract_x
 _atom_site_fract_y
 _atom_site_fract_z
 _atom_site_occupancy
  F  F0  1  0.00000000  0.00000000  0.50000000  1
  F  F1  1  0.50000000  0.50000000  0.50000000  1
  F  F2  1  0.00000000  0.50000000  0.00000000  1
  F  F3  1  0.50000000  0.00000000  0.00000000  1
  F  F4  1  0.91525265  0.61514995  0.22908519  1
  F  F5  1  -0.91525265  -0.61514995  0.22908519  1
  F  F6  1  -0.41525265  1.11514995  -0.22908519  1
  F  F7  1  1.41525265  -0.11514995  -0.22908519  1
  F  F8  1  -0.91525265  -0.61514995  -0.22908519  1
  F  F9  1  0.91525265  0.61514995  -0.22908519  1
  F  F10  1  1.41525265  -0.11514995  0.22908519  1
  F  F11  1  -0.41525265  1.11514995  0.22908519  1
  F  F12  1  0.05026852  0.53129664  0.88763294  1
  F  F13  1  0.94973148  0.46870336  0.88763294  1
  F  F14  1  0.44973148  0.03129664  0.11236706  1
  F  F15  1  0.55026852  0.96870336  0.11236706  1
  F  F16  1  0.94973148  0.46870336  0.11236706  1
  F  F17  1  0.05026852  0.53129664  0.11236706  1
  F  F18  1  0.55026852  0.96870336  0.88763294  1
  F  F19  1  0.44973148  0.03129664  0.88763294  1
  F  F20  1  0.00000000  0.00000000  0.00000000  1
  F  F21  1  0.50000000  0.50000000  0.00000000  1
  F  F22  1  0.00000000  0.50000000  0.50000000  1
  F  F23  1  0.50000000  0.00000000  0.50000000  1
  Li  Li24  1  0.23764919  0.13255501  0.80498660  1
  Li  Li25  1  0.76235081  0.86744499  0.80498660  1
  Li  Li26  1  0.26235081  0.63255501  0.19501340  1
  Li  Li27  1  0.73764919  0.36744499  0.19501340  1
  Li  Li28  1  0.76235081  0.86744499  0.19501340  1
  Li  Li29  1  0.23764919  0.13255501  0.19501340  1
  Li  Li30  1  0.73764919  0.36744499  0.80498660  1
  Li  Li31  1  0.26235081  0.63255501  0.80498660  1
  Li  Li32  1  0.67466675  0.96146362  0.50000000  1
  Li  Li33  1  0.32533325  0.03853638  0.50000000  1
  Li  Li34  1  0.82533325  0.46146362  0.50000000  1
  Li  Li35  1  0.17466675  0.53853638  0.50000000  1
  Li  Li36  1  0.87768371  0.30073359  0.67178118  1
  Li  Li37  1  0.12231629  0.69926641  0.67178118  1
  Li  Li38  1  0.62231629  0.80073359  0.32821882  1
  Li  Li39  1  0.37768371  0.19926641  0.32821882  1
  Li  Li40  1  0.12231629  0.69926641  0.32821882  1
  Li  Li41  1  0.87768371  0.30073359  0.32821882  1
  Li  Li42  1  0.37768371  0.19926641  0.67178118  1
  Li  Li43  1  0.62231629  0.80073359  0.67178118  1
  Li  Li44  1  0.00000000  0.00000000  0.76697743  1
  Li  Li45  1  0.50000000  0.50000000  0.23302257  1
  Li  Li46  1  0.00000000  0.00000000  0.23302257  1
  Li  Li47  1  0.50000000  0.50000000  0.76697743  1
