# generated using pymatgen
data_Li2Y2Te4P3Se
_symmetry_space_group_name_H-M   'P 1'
_cell_length_a   5.49384190
_cell_length_b   5.76717398
_cell_length_c   7.13410098
_cell_angle_alpha   93.53452155
_cell_angle_beta   97.93312695
_cell_angle_gamma   104.48133097
_symmetry_Int_Tables_number   1
_chemical_formula_structural   Li2Y2Te4P3Se
_chemical_formula_sum   'Li2 Y2 Te4 P3 Se1'
_cell_volume   215.66800076
_cell_formula_units_Z   1
loop_
 _symmetry_equiv_pos_site_id
 _symmetry_equiv_pos_as_xyz
  1  'x, y, z'
loop_
 _atom_site_type_symbol
 _atom_site_label
 _atom_site_symmetry_multiplicity
 _atom_site_fract_x
 _atom_site_fract_y
 _atom_site_fract_z
 _atom_site_occupancy
  Se  Se0  1  0.00000000  0.00000000  0.00000000  1
  Te  Te1  1  0.50000000  0.50000000  0.50000000  1
  Te  Te2  1  0.50000000  0.50000000  0.00000000  1
  Te  Te3  1  0.50000000  0.00000000  0.50000000  1
  Te  Te4  1  0.00000000  0.50000000  0.50000000  1
  P  P5  1  0.59891348  0.71687506  0.15963480  1
  P  P6  1  0.25680875  0.10138291  0.59495924  1
  P  P7  1  0.15828909  0.85070424  0.61222559  1
  Li  Li8  1  0.52662205  0.36442513  0.11167757  1
  Li  Li9  1  0.27344099  0.48468041  0.56861203  1
  Y  Y10  1  0.87802191  0.71872469  0.57752745  1
  Y  Y11  1  0.24004410  0.38872032  0.12036613  1
