# generated using pymatgen
data_LiF
_symmetry_space_group_name_H-M   'P 1'
_cell_length_a   9.14254917
_cell_length_b   10.58436575
_cell_length_c   4.67140375
_cell_angle_alpha   90.00000000
_cell_angle_beta   90.00000000
_cell_angle_gamma   90.00000000
_symmetry_Int_Tables_number   1
_chemical_formula_structural   LiF
_chemical_formula_sum   'Li24 F24'
_cell_volume   452.04279241
_cell_formula_units_Z   24
loop_
 _symmetry_equiv_pos_site_id
 _symmetry_equiv_pos_as_xyz
  1  'x, y, z'
loop_
 _atom_site_type_symbol
 _atom_site_label
 _atom_site_symmetry_multiplicity
 _atom_site_fract_x
 _atom_site_fract_y
 _atom_site_fract_z
 _atom_site_occupancy
  F  F0  1  0.91652356  0.80159998  0.14550335  1
  F  F1  1  0.58347644  0.19840002  0.64550335  1
  F  F2  1  0.08347644  0.30159998  0.85449665  1
  F  F3  1  0.41652356  0.69840002  0.35449665  1
  F  F4  1  0.08347644  0.19840002  0.85449665  1
  F  F5  1  0.41652356  0.80159998  0.35449665  1
  F  F6  1  0.91652356  0.69840002  0.14550335  1
  F  F7  1  0.58347644  0.30159998  0.64550335  1
  F  F8  1  0.26680764  0.33233749  0.33600205  1
  F  F9  1  0.23319236  0.66766251  0.83600205  1
  F  F10  1  0.73319236  0.83233749  0.66399795  1
  F  F11  1  0.76680764  0.16766251  0.16399795  1
  F  F12  1  0.73319236  0.66766251  0.66399795  1
  F  F13  1  0.76680764  0.33233749  0.16399795  1
  F  F14  1  0.26680764  0.16766251  0.33600205  1
  F  F15  1  0.23319236  0.83233749  0.83600205  1
  F  F16  1  0.12345697  0.63976315  0.12876491  1
  F  F17  1  0.37654303  0.36023685  0.62876491  1
  F  F18  1  0.87654303  0.13976315  0.87123509  1
  F  F19  1  0.62345697  0.86023685  0.37123509  1
  F  F20  1  0.87654303  0.36023685  0.87123509  1
  F  F21  1  0.62345697  0.63976315  0.37123509  1
  F  F22  1  0.12345697  0.86023685  0.12876491  1
  F  F23  1  0.37654303  0.13976315  0.62876491  1
  Li  Li24  1  0.00000000  0.00000000  0.50000000  1
  Li  Li25  1  0.50000000  0.00000000  0.00000000  1
  Li  Li26  1  0.00000000  0.50000000  0.50000000  1
  Li  Li27  1  0.50000000  0.50000000  0.00000000  1
  Li  Li28  1  0.86553446  0.85622497  0.88661794  1
  Li  Li29  1  -0.36553446  -0.85622497  1.38661794  1
  Li  Li30  1  -0.86553446  1.35622497  -0.88661794  1
  Li  Li31  1  1.36553446  -0.35622497  -0.38661794  1
  Li  Li32  1  -0.86553446  -0.85622497  -0.88661794  1
  Li  Li33  1  1.36553446  0.85622497  -0.38661794  1
  Li  Li34  1  0.86553446  -0.35622497  0.88661794  1
  Li  Li35  1  -0.36553446  1.35622497  1.38661794  1
  Li  Li36  1  0.17418799  0.07286475  0.89901760  1
  Li  Li37  1  0.32581201  0.92713525  0.39901760  1
  Li  Li38  1  0.82581201  0.57286475  0.10098240  1
  Li  Li39  1  0.67418799  0.42713525  0.60098240  1
  Li  Li40  1  0.82581201  0.92713525  0.10098240  1
  Li  Li41  1  0.67418799  0.07286475  0.60098240  1
  Li  Li42  1  0.17418799  0.42713525  0.89901760  1
  Li  Li43  1  0.32581201  0.57286475  0.39901760  1
  Li  Li44  1  0.00000000  0.00000000  0.00000000  1
  Li  Li45  1  0.50000000  0.00000000  0.50000000  1
  Li  Li46  1  0.00000000  0.50000000  0.00000000  1
  Li  Li47  1  0.50000000  0.50000000  0.50000000  1
