# generated using pymatgen
data_LiF
_symmetry_space_group_name_H-M   'P 1'
_cell_length_a   8.95830480
_cell_length_b   9.31177523
_cell_length_c   6.28547879
_cell_angle_alpha   90.00000000
_cell_angle_beta   90.00000000
_cell_angle_gamma   90.00000000
_symmetry_Int_Tables_number   1
_chemical_formula_structural   LiF
_chemical_formula_sum   'Li20 F20'
_cell_volume   524.32031400
_cell_formula_units_Z   20
loop_
 _symmetry_equiv_pos_site_id
 _symmetry_equiv_pos_as_xyz
  1  'x, y, z'
loop_
 _atom_site_type_symbol
 _atom_site_label
 _atom_site_symmetry_multiplicity
 _atom_site_fract_x
 _atom_site_fract_y
 _atom_site_fract_z
 _atom_site_occupancy
  F  F0  1  0.48184206  0.90650493  0.37644210  1
  F  F1  1  0.01815794  0.09349507  0.87644210  1
  F  F2  1  0.51815794  0.40650493  0.62355790  1
  F  F3  1  0.98184206  0.59349507  0.12355790  1
  F  F4  1  0.51815794  0.09349507  0.62355790  1
  F  F5  1  0.98184206  0.90650493  0.12355790  1
  F  F6  1  0.48184206  0.59349507  0.37644210  1
  F  F7  1  0.01815794  0.40650493  0.87644210  1
  F  F8  1  0.00000000  0.00000000  0.50000000  1
  F  F9  1  0.50000000  0.00000000  0.00000000  1
  F  F10  1  0.00000000  0.50000000  0.50000000  1
  F  F11  1  0.50000000  0.50000000  0.00000000  1
  F  F12  1  0.93261718  0.00438567  0.86480746  1
  F  F13  1  0.56738282  0.99561433  0.36480746  1
  F  F14  1  0.06738282  0.50438567  0.13519254  1
  F  F15  1  0.43261718  0.49561433  0.63519254  1
  F  F16  1  0.06738282  0.99561433  0.13519254  1
  F  F17  1  0.43261718  0.00438567  0.63519254  1
  F  F18  1  0.93261718  0.49561433  0.86480746  1
  F  F19  1  0.56738282  0.50438567  0.36480746  1
  Li  Li20  1  0.16001892  0.25000000  0.78588113  1
  Li  Li21  1  0.33998108  0.75000000  0.28588113  1
  Li  Li22  1  0.83998108  0.75000000  0.21411887  1
  Li  Li23  1  0.66001892  0.25000000  0.71411887  1
  Li  Li24  1  0.00000000  0.00000000  0.00000000  1
  Li  Li25  1  0.50000000  0.00000000  0.50000000  1
  Li  Li26  1  0.00000000  0.50000000  0.00000000  1
  Li  Li27  1  0.50000000  0.50000000  0.50000000  1
  Li  Li28  1  0.11293681  0.86498215  0.63080492  1
  Li  Li29  1  0.38706319  -0.86498215  1.13080492  1
  Li  Li30  1  -0.11293681  1.36498215  -0.63080492  1
  Li  Li31  1  0.61293681  -0.36498215  -0.13080492  1
  Li  Li32  1  -0.11293681  -0.86498215  -0.63080492  1
  Li  Li33  1  0.61293681  0.86498215  -0.13080492  1
  Li  Li34  1  0.11293681  -0.36498215  0.63080492  1
  Li  Li35  1  0.38706319  1.36498215  1.13080492  1
  Li  Li36  1  0.82235402  0.25000000  0.17530060  1
  Li  Li37  1  0.67764598  0.75000000  0.67530060  1
  Li  Li38  1  0.17764598  0.75000000  0.82469940  1
  Li  Li39  1  0.32235402  0.25000000  0.32469940  1
