# generated using pymatgen
data_LiF
_symmetry_space_group_name_H-M   'P 1'
_cell_length_a   9.78934791
_cell_length_b   8.86256108
_cell_length_c   4.29108030
_cell_angle_alpha   90.00000000
_cell_angle_beta   90.00000000
_cell_angle_gamma   90.00000000
_symmetry_Int_Tables_number   1
_chemical_formula_structural   LiF
_chemical_formula_sum   'Li24 F24'
_cell_volume   372.28852187
_cell_formula_units_Z   24
loop_
 _symmetry_equiv_pos_site_id
 _symmetry_equiv_pos_as_xyz
  1  'x, y, z'
loop_
 _atom_site_type_symbol
 _atom_site_label
 _atom_site_symmetry_multiplicity
 _atom_site_fract_x
 _atom_site_fract_y
 _atom_site_fract_z
 _atom_site_occupancy
  F  F0  1  0.81499715  0.25000000  0.36765762  1
  F  F1  1  0.68500285  0.75000000  0.86765762  1
  F  F2  1  0.18500285  0.75000000  0.63234238  1
  F  F3  1  0.31499715  0.25000000  0.13234238  1
  F  F4  1  0.35124410  0.57960698  0.08070136  1
  F  F5  1  0.14875590  0.42039302  0.58070136  1
  F  F6  1  0.64875590  0.07960698  0.91929864  1
  F  F7  1  0.85124410  0.92039302  0.41929864  1
  F  F8  1  0.64875590  0.42039302  0.91929864  1
  F  F9  1  0.85124410  0.57960698  0.41929864  1
  F  F10  1  0.35124410  0.92039302  0.08070136  1
  F  F11  1  0.14875590  0.07960698  0.58070136  1
  F  F12  1  0.00000000  0.00000000  0.50000000  1
  F  F13  1  0.50000000  0.00000000  0.00000000  1
  F  F14  1  0.00000000  0.50000000  0.50000000  1
  F  F15  1  0.50000000  0.50000000  0.00000000  1
  F  F16  1  0.20745505  0.25000000  0.33815401  1
  F  F17  1  0.29254495  0.75000000  0.83815401  1
  F  F18  1  0.79254495  0.75000000  0.66184599  1
  F  F19  1  0.70745505  0.25000000  0.16184599  1
  F  F20  1  0.86133033  0.25000000  0.14683509  1
  F  F21  1  0.63866967  0.75000000  0.64683509  1
  F  F22  1  0.13866967  0.75000000  0.85316491  1
  F  F23  1  0.36133033  0.25000000  0.35316491  1
  Li  Li24  1  0.16576377  0.88866503  0.85009345  1
  Li  Li25  1  0.33423623  -0.88866503  1.35009345  1
  Li  Li26  1  -0.16576377  1.38866503  -0.85009345  1
  Li  Li27  1  0.66576377  -0.38866503  -0.35009345  1
  Li  Li28  1  -0.16576377  -0.88866503  -0.85009345  1
  Li  Li29  1  0.66576377  0.88866503  -0.35009345  1
  Li  Li30  1  0.16576377  -0.38866503  0.85009345  1
  Li  Li31  1  0.33423623  1.38866503  1.35009345  1
  Li  Li32  1  0.68962791  0.25000000  0.58785878  1
  Li  Li33  1  0.81037209  0.75000000  0.08785878  1
  Li  Li34  1  0.31037209  0.75000000  0.41214122  1
  Li  Li35  1  0.18962791  0.25000000  0.91214122  1
  Li  Li36  1  0.48779187  0.25000000  0.70198700  1
  Li  Li37  1  0.01220813  0.75000000  0.20198700  1
  Li  Li38  1  0.51220813  0.75000000  0.29801300  1
  Li  Li39  1  0.98779187  0.25000000  0.79801300  1
  Li  Li40  1  0.30362133  0.25000000  0.73498462  1
  Li  Li41  1  0.19637867  0.75000000  0.23498462  1
  Li  Li42  1  0.69637867  0.75000000  0.26501538  1
  Li  Li43  1  0.80362133  0.25000000  0.76501538  1
  Li  Li44  1  0.00000000  0.00000000  0.00000000  1
  Li  Li45  1  0.50000000  0.00000000  0.50000000  1
  Li  Li46  1  0.00000000  0.50000000  -0.00000000  1
  Li  Li47  1  0.50000000  0.50000000  0.50000000  1
