# generated using pymatgen
data_LiF
_symmetry_space_group_name_H-M   'P 1'
_cell_length_a   7.11918876
_cell_length_b   7.11918876
_cell_length_c   13.65897779
_cell_angle_alpha   90.00000000
_cell_angle_beta   90.00000000
_cell_angle_gamma   120.00000000
_symmetry_Int_Tables_number   1
_chemical_formula_structural   LiF
_chemical_formula_sum   'Li42 F42'
_cell_volume   599.52851896
_cell_formula_units_Z   42
loop_
 _symmetry_equiv_pos_site_id
 _symmetry_equiv_pos_as_xyz
  1  'x, y, z'
loop_
 _atom_site_type_symbol
 _atom_site_label
 _atom_site_symmetry_multiplicity
 _atom_site_fract_x
 _atom_site_fract_y
 _atom_site_fract_z
 _atom_site_occupancy
  F  F0  1  0.03609813  0.49196432  0.82550722  1
  F  F1  1  -0.49196432  -0.45586619  0.82550722  1
  F  F2  1  0.45586619  -0.03609813  0.82550722  1
  F  F3  1  0.49196432  0.03609813  -0.32550722  1
  F  F4  1  -0.45586619  -0.49196432  -0.32550722  1
  F  F5  1  -0.03609813  0.45586619  -0.32550722  1
  F  F6  1  -0.03609813  -0.49196432  -0.82550722  1
  F  F7  1  0.49196432  0.45586619  -0.82550722  1
  F  F8  1  -0.45586619  0.03609813  -0.82550722  1
  F  F9  1  -0.49196432  -0.03609813  1.32550722  1
  F  F10  1  0.45586619  0.49196432  1.32550722  1
  F  F11  1  0.03609813  -0.45586619  1.32550722  1
  F  F12  1  0.70276480  0.82529765  1.15884055  1
  F  F13  1  0.17470235  -0.12253286  1.15884055  1
  F  F14  1  1.12253286  0.29723520  1.15884055  1
  F  F15  1  1.15863099  0.36943146  0.00782612  1
  F  F16  1  0.21080048  -0.15863099  0.00782612  1
  F  F17  1  0.63056854  0.78919952  0.00782612  1
  F  F18  1  0.63056854  -0.15863099  -0.49217388  1
  F  F19  1  1.15863099  0.78919952  -0.49217388  1
  F  F20  1  0.21080048  0.36943146  -0.49217388  1
  F  F21  1  0.17470235  0.29723520  1.65884055  1
  F  F22  1  1.12253286  0.82529765  1.65884055  1
  F  F23  1  0.70276480  -0.12253286  1.65884055  1
  F  F24  1  0.36943146  1.15863099  1.49217388  1
  F  F25  1  -0.15863099  0.21080048  1.49217388  1
  F  F26  1  0.78919952  0.63056854  1.49217388  1
  F  F27  1  0.82529765  0.70276480  0.34115945  1
  F  F28  1  -0.12253286  0.17470235  0.34115945  1
  F  F29  1  0.29723520  1.12253286  0.34115945  1
  F  F30  1  0.29723520  0.17470235  -0.15884055  1
  F  F31  1  0.82529765  1.12253286  -0.15884055  1
  F  F32  1  -0.12253286  0.70276480  -0.15884055  1
  F  F33  1  -0.15863099  0.63056854  1.99217388  1
  F  F34  1  0.78919952  1.15863099  1.99217388  1
  F  F35  1  0.36943146  0.21080048  1.99217388  1
  F  F36  1  0.00000000  0.00000000  0.25000000  1
  F  F37  1  0.00000000  0.00000000  0.75000000  1
  F  F38  1  0.66666667  0.33333333  0.58333333  1
  F  F39  1  0.66666667  0.33333333  0.08333333  1
  F  F40  1  0.33333333  0.66666667  0.91666667  1
  F  F41  1  0.33333333  0.66666667  0.41666667  1
  Li  Li42  1  0.24415270  0.00000000  0.25000000  1
  Li  Li43  1  0.00000000  0.24415270  0.25000000  1
  Li  Li44  1  0.75584730  0.75584730  0.25000000  1
  Li  Li45  1  0.75584730  0.00000000  0.75000000  1
  Li  Li46  1  0.00000000  0.75584730  0.75000000  1
  Li  Li47  1  0.24415270  0.24415270  0.75000000  1
  Li  Li48  1  0.91081937  0.33333333  0.58333333  1
  Li  Li49  1  0.66666667  0.57748604  0.58333333  1
  Li  Li50  1  0.42251396  0.08918063  0.58333333  1
  Li  Li51  1  0.42251396  0.33333333  0.08333333  1
  Li  Li52  1  0.66666667  0.08918063  0.08333333  1
  Li  Li53  1  0.91081937  0.57748604  0.08333333  1
  Li  Li54  1  0.57748604  0.66666667  0.91666667  1
  Li  Li55  1  0.33333333  0.91081937  0.91666667  1
  Li  Li56  1  0.08918063  0.42251396  0.91666667  1
  Li  Li57  1  0.08918063  0.66666667  0.41666667  1
  Li  Li58  1  0.33333333  0.42251396  0.41666667  1
  Li  Li59  1  0.57748604  0.91081937  0.41666667  1
  Li  Li60  1  0.50000000  0.00000000  0.00000000  1
  Li  Li61  1  0.00000000  0.50000000  0.00000000  1
  Li  Li62  1  0.50000000  0.50000000  0.00000000  1
  Li  Li63  1  0.00000000  0.50000000  0.50000000  1
  Li  Li64  1  0.50000000  0.00000000  0.50000000  1
  Li  Li65  1  0.50000000  0.50000000  0.50000000  1
  Li  Li66  1  0.16666667  0.33333333  0.33333333  1
  Li  Li67  1  0.66666667  0.83333333  0.33333333  1
  Li  Li68  1  0.16666667  0.83333333  0.33333333  1
  Li  Li69  1  0.66666667  0.83333333  0.83333333  1
  Li  Li70  1  0.16666667  0.33333333  0.83333333  1
  Li  Li71  1  0.16666667  0.83333333  0.83333333  1
  Li  Li72  1  0.83333333  0.66666667  0.66666667  1
  Li  Li73  1  0.33333333  0.16666667  0.66666667  1
  Li  Li74  1  0.83333333  0.16666667  0.66666667  1
  Li  Li75  1  0.33333333  0.16666667  0.16666667  1
  Li  Li76  1  0.83333333  0.66666667  0.16666667  1
  Li  Li77  1  0.83333333  0.16666667  0.16666667  1
  Li  Li78  1  0.00000000  0.00000000  0.00000000  1
  Li  Li79  1  0.00000000  0.00000000  0.50000000  1
  Li  Li80  1  0.66666667  0.33333333  0.33333333  1
  Li  Li81  1  0.66666667  0.33333333  0.83333333  1
  Li  Li82  1  0.33333333  0.66666667  0.66666667  1
  Li  Li83  1  0.33333333  0.66666667  0.16666667  1
