# generated using pymatgen
data_LiCaF3
_symmetry_space_group_name_H-M   'P 1'
_cell_length_a   13.15304947
_cell_length_b   13.15304947
_cell_length_c   11.25703912
_cell_angle_alpha   90.00000000
_cell_angle_beta   90.00000000
_cell_angle_gamma   120.00000000
_symmetry_Int_Tables_number   1
_chemical_formula_structural   LiCaF3
_chemical_formula_sum   'Li18 Ca18 F54'
_cell_volume   1686.58298178
_cell_formula_units_Z   18
loop_
 _symmetry_equiv_pos_site_id
 _symmetry_equiv_pos_as_xyz
  1  'x, y, z'
loop_
 _atom_site_type_symbol
 _atom_site_label
 _atom_site_symmetry_multiplicity
 _atom_site_fract_x
 _atom_site_fract_y
 _atom_site_fract_z
 _atom_site_occupancy
  Ca  Ca0  1  0.33022918  0.16691682  0.86933071  1
  Ca  Ca1  1  -0.16691682  0.16331236  0.86933071  1
  Ca  Ca2  1  -0.16331236  -0.33022918  0.86933071  1
  Ca  Ca3  1  0.33022918  0.16691682  -0.86933071  1
  Ca  Ca4  1  -0.16691682  0.16331236  -0.86933071  1
  Ca  Ca5  1  -0.16331236  -0.33022918  -0.86933071  1
  Ca  Ca6  1  0.16691682  0.33022918  -0.86933071  1
  Ca  Ca7  1  0.16331236  -0.16691682  -0.86933071  1
  Ca  Ca8  1  -0.33022918  -0.16331236  -0.86933071  1
  Ca  Ca9  1  0.16691682  0.33022918  0.86933071  1
  Ca  Ca10  1  0.16331236  -0.16691682  0.86933071  1
  Ca  Ca11  1  -0.33022918  -0.16331236  0.86933071  1
  Ca  Ca12  1  0.20947747  -0.00000000  -0.00000000  1
  Ca  Ca13  1  0.00000000  0.20947747  0.00000000  1
  Ca  Ca14  1  0.79052253  0.79052253  0.00000000  1
  Ca  Ca15  1  0.80548362  -0.00000000  0.00000000  1
  Ca  Ca16  1  0.00000000  0.80548362  0.00000000  1
  Ca  Ca17  1  0.19451638  0.19451638  0.00000000  1
  F  F18  1  0.95518271  0.71901502  0.65902633  1
  F  F19  1  0.28098498  0.23616769  0.65902633  1
  F  F20  1  0.76383231  0.04481729  0.65902633  1
  F  F21  1  0.95518271  0.71901502  0.34097367  1
  F  F22  1  0.28098498  0.23616769  0.34097367  1
  F  F23  1  0.76383231  0.04481729  0.34097367  1
  F  F24  1  0.71901502  0.95518271  0.34097367  1
  F  F25  1  0.23616769  0.28098498  0.34097367  1
  F  F26  1  0.04481729  0.76383231  0.34097367  1
  F  F27  1  0.71901502  0.95518271  0.65902633  1
  F  F28  1  0.23616769  0.28098498  0.65902633  1
  F  F29  1  0.04481729  0.76383231  0.65902633  1
  F  F30  1  0.71747185  0.14557424  0.83123325  1
  F  F31  1  0.85442576  0.57189762  0.83123325  1
  F  F32  1  0.42810238  0.28252815  0.83123325  1
  F  F33  1  0.71747185  0.14557424  0.16876675  1
  F  F34  1  0.85442576  0.57189762  0.16876675  1
  F  F35  1  0.42810238  0.28252815  0.16876675  1
  F  F36  1  0.14557424  0.71747185  0.16876675  1
  F  F37  1  0.57189762  0.85442576  0.16876675  1
  F  F38  1  0.28252815  0.42810238  0.16876675  1
  F  F39  1  0.14557424  0.71747185  0.83123325  1
  F  F40  1  0.57189762  0.85442576  0.83123325  1
  F  F41  1  0.28252815  0.42810238  0.83123325  1
  F  F42  1  0.14322525  0.47170764  0.50000000  1
  F  F43  1  0.52829236  0.67151761  0.50000000  1
  F  F44  1  0.32848239  0.85677475  0.50000000  1
  F  F45  1  0.47170764  0.14322525  0.50000000  1
  F  F46  1  0.67151761  0.52829236  0.50000000  1
  F  F47  1  0.85677475  0.32848239  0.50000000  1
  F  F48  1  0.53688201  0.00000000  0.73148995  1
  F  F49  1  0.00000000  0.53688201  0.73148995  1
  F  F50  1  0.46311799  0.46311799  0.73148995  1
  F  F51  1  0.53688201  0.00000000  0.26851005  1
  F  F52  1  0.00000000  0.53688201  0.26851005  1
  F  F53  1  0.46311799  0.46311799  0.26851005  1
  F  F54  1  0.67838232  0.74072479  0.00000000  1
  F  F55  1  0.25927521  0.93765753  -0.00000000  1
  F  F56  1  0.06234247  0.32161768  0.00000000  1
  F  F57  1  0.74072479  0.67838232  0.00000000  1
  F  F58  1  0.93765753  0.25927521  0.00000000  1
  F  F59  1  0.32161768  0.06234247  0.00000000  1
  F  F60  1  0.84388609  0.32032046  0.07078253  1
  F  F61  1  0.67967954  0.52356563  0.07078253  1
  F  F62  1  0.47643437  0.15611391  0.07078253  1
  F  F63  1  0.84388609  0.32032046  0.92921747  1
  F  F64  1  0.67967954  0.52356563  0.92921747  1
  F  F65  1  0.47643437  0.15611391  0.92921747  1
  F  F66  1  0.32032046  0.84388609  0.92921747  1
  F  F67  1  0.52356563  0.67967954  0.92921747  1
  F  F68  1  0.15611391  0.47643437  0.92921747  1
  F  F69  1  0.32032046  0.84388609  0.07078253  1
  F  F70  1  0.52356563  0.67967954  0.07078253  1
  F  F71  1  0.15611391  0.47643437  0.07078253  1
  Li  Li72  1  0.31167948  0.89880096  0.68964104  1
  Li  Li73  1  0.10119904  0.41287852  0.68964104  1
  Li  Li74  1  0.58712148  0.68832052  0.68964104  1
  Li  Li75  1  0.31167948  0.89880096  0.31035896  1
  Li  Li76  1  0.10119904  0.41287852  0.31035896  1
  Li  Li77  1  0.58712148  0.68832052  0.31035896  1
  Li  Li78  1  0.89880096  0.31167948  0.31035896  1
  Li  Li79  1  0.41287852  0.10119904  0.31035896  1
  Li  Li80  1  0.68832052  0.58712148  0.31035896  1
  Li  Li81  1  0.89880096  0.31167948  0.68964104  1
  Li  Li82  1  0.41287852  0.10119904  0.68964104  1
  Li  Li83  1  0.68832052  0.58712148  0.68964104  1
  Li  Li84  1  0.00000000  0.00000000  0.34340002  1
  Li  Li85  1  0.00000000  0.00000000  0.65659998  1
  Li  Li86  1  0.33333333  0.66666667  0.30965774  1
  Li  Li87  1  0.33333333  0.66666667  0.69034226  1
  Li  Li88  1  0.66666667  0.33333333  0.69034226  1
  Li  Li89  1  0.66666667  0.33333333  0.30965774  1
