# generated using pymatgen
data_LiF
_symmetry_space_group_name_H-M   'P 1'
_cell_length_a   6.44959429
_cell_length_b   6.44959429
_cell_length_c   25.53875999
_cell_angle_alpha   90.00000000
_cell_angle_beta   90.00000000
_cell_angle_gamma   90.00000000
_symmetry_Int_Tables_number   1
_chemical_formula_structural   LiF
_chemical_formula_sum   'Li28 F28'
_cell_volume   1062.34260516
_cell_formula_units_Z   28
loop_
 _symmetry_equiv_pos_site_id
 _symmetry_equiv_pos_as_xyz
  1  'x, y, z'
loop_
 _atom_site_type_symbol
 _atom_site_label
 _atom_site_symmetry_multiplicity
 _atom_site_fract_x
 _atom_site_fract_y
 _atom_site_fract_z
 _atom_site_occupancy
  F  F0  1  0.00000000  0.68001693  0.99238551  1
  F  F1  1  0.50000000  0.31998307  0.49238551  1
  F  F2  1  0.56998307  0.75000000  0.24238551  1
  F  F3  1  0.93001693  0.25000000  0.74238551  1
  F  F4  1  0.50000000  0.68001693  0.50761449  1
  F  F5  1  0.00000000  0.31998307  0.00761449  1
  F  F6  1  0.93001693  0.75000000  0.25761449  1
  F  F7  1  0.56998307  0.25000000  0.75761449  1
  F  F8  1  0.50000000  0.18001693  0.49238551  1
  F  F9  1  0.00000000  0.81998307  0.99238551  1
  F  F10  1  0.06998307  0.25000000  0.74238551  1
  F  F11  1  0.43001693  0.75000000  0.24238551  1
  F  F12  1  0.00000000  0.18001693  0.00761449  1
  F  F13  1  0.50000000  0.81998307  0.50761449  1
  F  F14  1  0.43001693  0.25000000  0.75761449  1
  F  F15  1  0.06998307  0.75000000  0.25761449  1
  F  F16  1  0.00000000  0.25000000  0.97867777  1
  F  F17  1  0.00000000  0.75000000  0.22867777  1
  F  F18  1  0.50000000  0.25000000  0.52132223  1
  F  F19  1  0.50000000  0.75000000  0.27132223  1
  F  F20  1  0.50000000  0.75000000  0.47867777  1
  F  F21  1  0.50000000  0.25000000  0.72867777  1
  F  F22  1  0.00000000  0.75000000  0.02132223  1
  F  F23  1  0.00000000  0.25000000  0.77132223  1
  F  F24  1  0.00000000  0.25000000  0.37500000  1
  F  F25  1  0.00000000  0.75000000  0.62500000  1
  F  F26  1  0.50000000  0.75000000  0.87500000  1
  F  F27  1  0.50000000  0.25000000  0.12500000  1
  Li  Li28  1  0.00000000  0.00000000  0.00000000  1
  Li  Li29  1  0.50000000  -0.00000000  0.50000000  1
  Li  Li30  1  0.25000000  0.75000000  0.25000000  1
  Li  Li31  1  0.25000000  0.25000000  0.75000000  1
  Li  Li32  1  0.50000000  0.50000000  0.50000000  1
  Li  Li33  1  0.00000000  0.50000000  0.00000000  1
  Li  Li34  1  0.75000000  0.25000000  0.75000000  1
  Li  Li35  1  0.75000000  0.75000000  0.25000000  1
  Li  Li36  1  0.39886696  0.00000000  0.00000000  1
  Li  Li37  1  0.10113304  0.00000000  0.50000000  1
  Li  Li38  1  0.25000000  1.14886696  0.25000000  1
  Li  Li39  1  0.25000000  -0.14886696  0.75000000  1
  Li  Li40  1  -0.39886696  0.00000000  -0.00000000  1
  Li  Li41  1  0.89886696  -0.00000000  0.50000000  1
  Li  Li42  1  0.75000000  -0.14886696  0.75000000  1
  Li  Li43  1  0.75000000  1.14886696  0.25000000  1
  Li  Li44  1  0.89886696  0.50000000  0.50000000  1
  Li  Li45  1  0.60113304  0.50000000  1.00000000  1
  Li  Li46  1  0.75000000  1.64886696  0.75000000  1
  Li  Li47  1  0.75000000  0.35113304  1.25000000  1
  Li  Li48  1  0.10113304  0.50000000  0.50000000  1
  Li  Li49  1  1.39886696  0.50000000  1.00000000  1
  Li  Li50  1  1.25000000  0.35113304  1.25000000  1
  Li  Li51  1  1.25000000  1.64886696  0.75000000  1
  Li  Li52  1  0.00000000  0.75000000  0.12500000  1
  Li  Li53  1  0.50000000  0.75000000  0.37500000  1
  Li  Li54  1  0.50000000  0.25000000  0.62500000  1
  Li  Li55  1  0.00000000  0.25000000  0.87500000  1
