# generated using pymatgen
data_LiF
_symmetry_space_group_name_H-M   'P 1'
_cell_length_a   6.27776971
_cell_length_b   6.27776971
_cell_length_c   16.59781483
_cell_angle_alpha   90.00000000
_cell_angle_beta   90.00000000
_cell_angle_gamma   120.00000000
_symmetry_Int_Tables_number   1
_chemical_formula_structural   LiF
_chemical_formula_sum   'Li20 F20'
_cell_volume   566.49007781
_cell_formula_units_Z   20
loop_
 _symmetry_equiv_pos_site_id
 _symmetry_equiv_pos_as_xyz
  1  'x, y, z'
loop_
 _atom_site_type_symbol
 _atom_site_label
 _atom_site_symmetry_multiplicity
 _atom_site_fract_x
 _atom_site_fract_y
 _atom_site_fract_z
 _atom_site_occupancy
  F  F0  1  0.00000000  0.00000000  0.50000000  1
  F  F1  1  0.96560627  0.18542455  0.47703894  1
  F  F2  1  0.81457545  0.78018173  0.47703894  1
  F  F3  1  0.21981827  0.03439373  0.47703894  1
  F  F4  1  0.81457545  0.03439373  0.52296106  1
  F  F5  1  0.21981827  0.18542455  0.52296106  1
  F  F6  1  0.96560627  0.78018173  0.52296106  1
  F  F7  1  0.06140142  0.89814280  0.87689138  1
  F  F8  1  0.10185720  0.16325862  0.87689138  1
  F  F9  1  0.83674138  0.93859858  0.87689138  1
  F  F10  1  0.10185720  0.93859858  0.12310862  1
  F  F11  1  0.83674138  0.89814280  0.12310862  1
  F  F12  1  0.06140142  0.16325862  0.12310862  1
  F  F13  1  0.33333333  0.66666667  0.50000000  1
  F  F14  1  0.20742177  0.26015261  0.98068745  1
  F  F15  1  0.73984739  0.94726916  0.98068745  1
  F  F16  1  0.05273084  0.79257823  0.98068745  1
  F  F17  1  0.73984739  0.79257823  0.01931255  1
  F  F18  1  0.05273084  0.26015261  0.01931255  1
  F  F19  1  0.20742177  0.94726916  0.01931255  1
  Li  Li20  1  0.25676812  0.16871796  0.91616743  1
  Li  Li21  1  -0.16871796  0.08805016  0.91616743  1
  Li  Li22  1  -0.08805016  -0.25676812  0.91616743  1
  Li  Li23  1  -0.16871796  -0.25676812  -0.91616743  1
  Li  Li24  1  -0.08805016  0.16871796  -0.91616743  1
  Li  Li25  1  0.25676812  0.08805016  -0.91616743  1
  Li  Li26  1  0.18853812  0.23917809  0.75118553  1
  Li  Li27  1  0.76082191  0.94936003  0.75118553  1
  Li  Li28  1  0.05063997  0.81146188  0.75118553  1
  Li  Li29  1  0.76082191  0.81146188  0.24881447  1
  Li  Li30  1  0.05063997  0.23917809  0.24881447  1
  Li  Li31  1  0.18853812  0.94936003  0.24881447  1
  Li  Li32  1  0.24513143  0.75486857  0.50000000  1
  Li  Li33  1  0.24513143  0.49026286  0.50000000  1
  Li  Li34  1  0.50973714  0.75486857  0.50000000  1
  Li  Li35  1  0.66666667  0.33333333  0.50000000  1
  Li  Li36  1  0.00000000  0.00000000  0.00000000  1
  Li  Li37  1  0.66666667  0.33333333  0.00000000  1
  Li  Li38  1  0.33333333  0.66666667  0.57489916  1
  Li  Li39  1  0.33333333  0.66666667  0.42510084  1
