# generated using pymatgen
data_LiF
_symmetry_space_group_name_H-M   'P 1'
_cell_length_a   7.56855971
_cell_length_b   7.56855971
_cell_length_c   7.72840481
_cell_angle_alpha   90.00000000
_cell_angle_beta   90.00000000
_cell_angle_gamma   120.00000000
_symmetry_Int_Tables_number   1
_chemical_formula_structural   LiF
_chemical_formula_sum   'Li22 F22'
_cell_volume   383.39546981
_cell_formula_units_Z   22
loop_
 _symmetry_equiv_pos_site_id
 _symmetry_equiv_pos_as_xyz
  1  'x, y, z'
loop_
 _atom_site_type_symbol
 _atom_site_label
 _atom_site_symmetry_multiplicity
 _atom_site_fract_x
 _atom_site_fract_y
 _atom_site_fract_z
 _atom_site_occupancy
  F  F0  1  0.33333333  0.66666667  0.25000000  1
  F  F1  1  0.66666667  0.33333333  0.75000000  1
  F  F2  1  0.13467027  0.27596023  0.10502878  1
  F  F3  1  -0.27596023  -0.14128995  0.10502878  1
  F  F4  1  0.14128995  -0.13467027  0.10502878  1
  F  F5  1  -0.13467027  -0.27596023  0.60502878  1
  F  F6  1  0.27596023  0.14128995  0.60502878  1
  F  F7  1  -0.14128995  0.13467027  0.60502878  1
  F  F8  1  -0.13467027  -0.27596023  -0.10502878  1
  F  F9  1  0.27596023  0.14128995  -0.10502878  1
  F  F10  1  -0.14128995  0.13467027  -0.10502878  1
  F  F11  1  0.13467027  0.27596023  0.39497122  1
  F  F12  1  -0.27596023  -0.14128995  0.39497122  1
  F  F13  1  0.14128995  -0.13467027  0.39497122  1
  F  F14  1  0.00000000  0.00000000  0.83957088  1
  F  F15  1  0.00000000  0.00000000  0.33957088  1
  F  F16  1  0.00000000  0.00000000  0.16042912  1
  F  F17  1  0.00000000  0.00000000  0.66042912  1
  F  F18  1  0.00000000  0.00000000  0.25000000  1
  F  F19  1  0.00000000  0.00000000  0.75000000  1
  F  F20  1  0.00000000  0.00000000  0.00000000  1
  F  F21  1  0.00000000  0.00000000  0.50000000  1
  Li  Li22  1  0.07158002  0.38030526  0.25000000  1
  Li  Li23  1  0.61969474  0.69127475  0.25000000  1
  Li  Li24  1  0.30872525  0.92841998  0.25000000  1
  Li  Li25  1  0.92841998  0.61969474  0.75000000  1
  Li  Li26  1  0.38030526  0.30872525  0.75000000  1
  Li  Li27  1  0.69127475  0.07158002  0.75000000  1
  Li  Li28  1  0.33333333  0.66666667  0.59053729  1
  Li  Li29  1  0.66666667  0.33333333  0.09053729  1
  Li  Li30  1  0.66666667  0.33333333  0.40946271  1
  Li  Li31  1  0.33333333  0.66666667  0.90946271  1
  Li  Li32  1  0.16071306  0.98455396  0.47940033  1
  Li  Li33  1  0.01544604  0.17615910  0.47940033  1
  Li  Li34  1  0.82384090  0.83928694  0.47940033  1
  Li  Li35  1  0.83928694  0.01544604  0.97940033  1
  Li  Li36  1  0.98455396  0.82384090  0.97940033  1
  Li  Li37  1  0.17615910  0.16071306  0.97940033  1
  Li  Li38  1  0.83928694  0.01544604  0.52059967  1
  Li  Li39  1  0.98455396  0.82384090  0.52059967  1
  Li  Li40  1  0.17615910  0.16071306  0.52059967  1
  Li  Li41  1  0.16071306  0.98455396  0.02059967  1
  Li  Li42  1  0.01544604  0.17615910  0.02059967  1
  Li  Li43  1  0.82384090  0.83928694  0.02059967  1
