# generated using pymatgen
data_LiF
_symmetry_space_group_name_H-M   'P 1'
_cell_length_a   4.53346468
_cell_length_b   5.93212526
_cell_length_c   7.18824310
_cell_angle_alpha   90.00000000
_cell_angle_beta   90.00000000
_cell_angle_gamma   90.00000000
_symmetry_Int_Tables_number   1
_chemical_formula_structural   LiF
_chemical_formula_sum   'Li8 F8'
_cell_volume   193.31399942
_cell_formula_units_Z   8
loop_
 _symmetry_equiv_pos_site_id
 _symmetry_equiv_pos_as_xyz
  1  'x, y, z'
loop_
 _atom_site_type_symbol
 _atom_site_label
 _atom_site_symmetry_multiplicity
 _atom_site_fract_x
 _atom_site_fract_y
 _atom_site_fract_z
 _atom_site_occupancy
  F  F0  1  0.60458727  0.20089913  0.06249767  1
  F  F1  1  -0.60458727  -0.20089913  0.06249767  1
  F  F2  1  -0.10458727  0.70089913  0.43750233  1
  F  F3  1  1.10458727  0.29910087  0.43750233  1
  F  F4  1  -0.60458727  -0.20089913  -0.06249767  1
  F  F5  1  0.60458727  0.20089913  -0.06249767  1
  F  F6  1  1.10458727  0.29910087  0.56249767  1
  F  F7  1  -0.10458727  0.70089913  0.56249767  1
  Li  Li8  1  0.00000000  0.00000000  0.00000000  1
  Li  Li9  1  0.50000000  0.50000000  0.50000000  1
  Li  Li10  1  0.00000000  0.50000000  0.71877890  1
  Li  Li11  1  0.50000000  0.00000000  0.78122110  1
  Li  Li12  1  0.00000000  0.50000000  0.28122110  1
  Li  Li13  1  0.50000000  0.00000000  0.21877890  1
  Li  Li14  1  0.00000000  0.50000000  -0.00000000  1
  Li  Li15  1  0.50000000  0.00000000  0.50000000  1
