# generated using pymatgen
data_LiF
_symmetry_space_group_name_H-M   'P 1'
_cell_length_a   10.90478456
_cell_length_b   10.90478456
_cell_length_c   5.98756456
_cell_angle_alpha   90.00000000
_cell_angle_beta   90.00000000
_cell_angle_gamma   120.00000000
_symmetry_Int_Tables_number   1
_chemical_formula_structural   LiF
_chemical_formula_sum   'Li21 F21'
_cell_volume   616.61632860
_cell_formula_units_Z   21
loop_
 _symmetry_equiv_pos_site_id
 _symmetry_equiv_pos_as_xyz
  1  'x, y, z'
loop_
 _atom_site_type_symbol
 _atom_site_label
 _atom_site_symmetry_multiplicity
 _atom_site_fract_x
 _atom_site_fract_y
 _atom_site_fract_z
 _atom_site_occupancy
  F  F0  1  0.18947479  0.38582361  0.60885426  1
  F  F1  1  0.61417639  0.80365118  0.60885426  1
  F  F2  1  0.19634882  0.81052521  0.60885426  1
  F  F3  1  0.61417639  0.81052521  0.39114574  1
  F  F4  1  0.19634882  0.38582361  0.39114574  1
  F  F5  1  0.18947479  0.80365118  0.39114574  1
  F  F6  1  0.33333333  0.66666667  0.50000000  1
  F  F7  1  0.41958810  0.37360982  0.21392961  1
  F  F8  1  0.62639018  0.04597828  0.21392961  1
  F  F9  1  0.95402172  0.58041190  0.21392961  1
  F  F10  1  0.62639018  0.58041190  0.78607039  1
  F  F11  1  0.95402172  0.37360982  0.78607039  1
  F  F12  1  0.41958810  0.04597828  0.78607039  1
  F  F13  1  0.45221970  0.54778030  -0.00000000  1
  F  F14  1  0.45221970  0.90443940  -0.00000000  1
  F  F15  1  0.09556060  0.54778030  0.00000000  1
  F  F16  1  0.15817576  0.84182424  0.00000000  1
  F  F17  1  0.15817576  0.31635152  0.00000000  1
  F  F18  1  0.68364848  0.84182424  0.00000000  1
  F  F19  1  0.33333333  0.66666667  0.25818045  1
  F  F20  1  0.33333333  0.66666667  0.74181955  1
  Li  Li21  1  0.01274916  0.35764442  0.25382573  1
  Li  Li22  1  -0.35764442  -0.34489526  0.25382573  1
  Li  Li23  1  0.34489526  -0.01274916  0.25382573  1
  Li  Li24  1  -0.35764442  -0.01274916  -0.25382573  1
  Li  Li25  1  0.34489526  0.35764442  -0.25382573  1
  Li  Li26  1  0.01274916  -0.34489526  -0.25382573  1
  Li  Li27  1  0.34891646  0.45092504  0.18004442  1
  Li  Li28  1  0.54907496  0.89799142  0.18004442  1
  Li  Li29  1  0.10200858  0.65108354  0.18004442  1
  Li  Li30  1  0.54907496  0.65108354  0.81995558  1
  Li  Li31  1  0.10200858  0.45092504  0.81995558  1
  Li  Li32  1  0.34891646  0.89799142  0.81995558  1
  Li  Li33  1  0.00000000  0.00000000  0.50000000  1
  Li  Li34  1  0.33333333  0.66666667  0.00000000  1
  Li  Li35  1  0.79313741  0.70484613  0.50702096  1
  Li  Li36  1  0.29515387  0.08829128  0.50702096  1
  Li  Li37  1  0.91170872  0.20686259  0.50702096  1
  Li  Li38  1  0.29515387  0.20686259  0.49297904  1
  Li  Li39  1  0.91170872  0.70484613  0.49297904  1
  Li  Li40  1  0.79313741  0.08829128  0.49297904  1
  Li  Li41  1  0.66666667  0.33333333  -0.00000000  1
