# generated using pymatgen
data_LiF
_symmetry_space_group_name_H-M   'P 1'
_cell_length_a   19.55260858
_cell_length_b   5.78692042
_cell_length_c   6.66011463
_cell_angle_alpha   90.00000000
_cell_angle_beta   90.00000000
_cell_angle_gamma   90.00000000
_symmetry_Int_Tables_number   1
_chemical_formula_structural   LiF
_chemical_formula_sum   'Li24 F24'
_cell_volume   753.58790673
_cell_formula_units_Z   24
loop_
 _symmetry_equiv_pos_site_id
 _symmetry_equiv_pos_as_xyz
  1  'x, y, z'
loop_
 _atom_site_type_symbol
 _atom_site_label
 _atom_site_symmetry_multiplicity
 _atom_site_fract_x
 _atom_site_fract_y
 _atom_site_fract_z
 _atom_site_occupancy
  F  F0  1  0.47366395  0.12467801  0.84955710  1
  F  F1  1  0.02633605  0.87532199  0.34955710  1
  F  F2  1  0.52633605  0.62467801  0.15044290  1
  F  F3  1  0.97366395  0.37532199  0.65044290  1
  F  F4  1  0.52633605  0.87532199  0.15044290  1
  F  F5  1  0.97366395  0.12467801  0.65044290  1
  F  F6  1  0.47366395  0.37532199  0.84955710  1
  F  F7  1  0.02633605  0.62467801  0.34955710  1
  F  F8  1  0.55001638  0.25000000  0.65159960  1
  F  F9  1  0.94998362  0.75000000  0.15159960  1
  F  F10  1  0.44998362  0.75000000  0.34840040  1
  F  F11  1  0.05001638  0.25000000  0.84840040  1
  F  F12  1  0.62812291  0.50397844  0.57939674  1
  F  F13  1  0.87187709  0.49602156  0.07939674  1
  F  F14  1  0.37187709  0.00397844  0.42060326  1
  F  F15  1  0.12812291  0.99602156  0.92060326  1
  F  F16  1  0.37187709  0.49602156  0.42060326  1
  F  F17  1  0.12812291  0.50397844  0.92060326  1
  F  F18  1  0.62812291  0.99602156  0.57939674  1
  F  F19  1  0.87187709  0.00397844  0.07939674  1
  F  F20  1  0.36278637  0.25000000  0.05263032  1
  F  F21  1  0.13721363  0.75000000  0.55263032  1
  F  F22  1  0.63721363  0.75000000  0.94736968  1
  F  F23  1  0.86278637  0.25000000  0.44736968  1
  Li  Li24  1  0.76423731  0.25000000  0.52458604  1
  Li  Li25  1  0.73576269  0.75000000  0.02458604  1
  Li  Li26  1  0.23576269  0.75000000  0.47541396  1
  Li  Li27  1  0.26423731  0.25000000  0.97541396  1
  Li  Li28  1  0.33479007  0.25000000  0.77950395  1
  Li  Li29  1  0.16520993  0.75000000  0.27950395  1
  Li  Li30  1  0.66520993  0.75000000  0.22049605  1
  Li  Li31  1  0.83479007  0.25000000  0.72049605  1
  Li  Li32  1  0.00000000  0.00000000  0.50000000  1
  Li  Li33  1  0.50000000  0.00000000  0.00000000  1
  Li  Li34  1  0.00000000  0.50000000  0.50000000  1
  Li  Li35  1  0.50000000  0.50000000  0.00000000  1
  Li  Li36  1  0.00000000  0.00000000  0.00000000  1
  Li  Li37  1  0.50000000  0.00000000  0.50000000  1
  Li  Li38  1  0.00000000  0.50000000  0.00000000  1
  Li  Li39  1  0.50000000  0.50000000  0.50000000  1
  Li  Li40  1  0.83102176  0.91912754  0.26575584  1
  Li  Li41  1  -0.33102176  -0.91912754  0.76575584  1
  Li  Li42  1  -0.83102176  1.41912754  -0.26575584  1
  Li  Li43  1  1.33102176  -0.41912754  0.23424416  1
  Li  Li44  1  -0.83102176  -0.91912754  -0.26575584  1
  Li  Li45  1  1.33102176  0.91912754  0.23424416  1
  Li  Li46  1  0.83102176  -0.41912754  0.26575584  1
  Li  Li47  1  -0.33102176  1.41912754  0.76575584  1
