# generated using pymatgen
data_LiF
_symmetry_space_group_name_H-M   'P 1'
_cell_length_a   8.23225840
_cell_length_b   10.90277954
_cell_length_c   9.12955327
_cell_angle_alpha   90.00000000
_cell_angle_beta   90.00000000
_cell_angle_gamma   90.00000000
_symmetry_Int_Tables_number   1
_chemical_formula_structural   LiF
_chemical_formula_sum   'Li32 F32'
_cell_volume   819.41847499
_cell_formula_units_Z   32
loop_
 _symmetry_equiv_pos_site_id
 _symmetry_equiv_pos_as_xyz
  1  'x, y, z'
loop_
 _atom_site_type_symbol
 _atom_site_label
 _atom_site_symmetry_multiplicity
 _atom_site_fract_x
 _atom_site_fract_y
 _atom_site_fract_z
 _atom_site_occupancy
  F  F0  1  0.05214745  0.15193457  0.18960709  1
  F  F1  1  -0.05214745  -0.15193457  0.18960709  1
  F  F2  1  0.44785255  0.65193457  -0.18960709  1
  F  F3  1  0.55214745  0.34806543  -0.18960709  1
  F  F4  1  -0.05214745  -0.15193457  -0.18960709  1
  F  F5  1  0.05214745  0.15193457  -0.18960709  1
  F  F6  1  0.55214745  0.34806543  0.18960709  1
  F  F7  1  0.44785255  0.65193457  0.18960709  1
  F  F8  1  0.17928101  0.74500159  0.25803738  1
  F  F9  1  0.82071899  0.25499841  0.25803738  1
  F  F10  1  0.32071899  0.24500159  0.74196262  1
  F  F11  1  0.67928101  0.75499841  0.74196262  1
  F  F12  1  0.82071899  0.25499841  0.74196262  1
  F  F13  1  0.17928101  0.74500159  0.74196262  1
  F  F14  1  0.67928101  0.75499841  0.25803738  1
  F  F15  1  0.32071899  0.24500159  0.25803738  1
  F  F16  1  0.00000000  0.00000000  0.50000000  1
  F  F17  1  0.50000000  0.50000000  0.50000000  1
  F  F18  1  0.00000000  0.50000000  0.06327727  1
  F  F19  1  0.50000000  0.00000000  0.93672273  1
  F  F20  1  0.00000000  0.50000000  0.93672273  1
  F  F21  1  0.50000000  0.00000000  0.06327727  1
  F  F22  1  0.00000000  0.00000000  0.85918868  1
  F  F23  1  0.50000000  0.50000000  0.14081132  1
  F  F24  1  0.00000000  0.00000000  0.14081132  1
  F  F25  1  0.50000000  0.50000000  0.85918868  1
  F  F26  1  0.56859368  0.68427425  0.50000000  1
  F  F27  1  0.43140632  0.31572575  0.50000000  1
  F  F28  1  0.93140632  0.18427425  0.50000000  1
  F  F29  1  0.06859368  0.81572575  0.50000000  1
  F  F30  1  0.00000000  0.50000000  0.50000000  1
  F  F31  1  0.50000000  0.00000000  0.50000000  1
  Li  Li32  1  0.45384308  0.75506579  0.59287343  1
  Li  Li33  1  0.54615692  0.24493421  0.59287343  1
  Li  Li34  1  0.04615692  0.25506579  0.40712657  1
  Li  Li35  1  0.95384308  0.74493421  0.40712657  1
  Li  Li36  1  0.54615692  0.24493421  0.40712657  1
  Li  Li37  1  0.45384308  0.75506579  0.40712657  1
  Li  Li38  1  0.95384308  0.74493421  0.59287343  1
  Li  Li39  1  0.04615692  0.25506579  0.59287343  1
  Li  Li40  1  0.07063600  0.37697829  0.71896684  1
  Li  Li41  1  0.92936400  0.62302171  0.71896684  1
  Li  Li42  1  0.42936400  0.87697829  0.28103316  1
  Li  Li43  1  0.57063600  0.12302171  0.28103316  1
  Li  Li44  1  0.92936400  0.62302171  0.28103316  1
  Li  Li45  1  0.07063600  0.37697829  0.28103316  1
  Li  Li46  1  0.57063600  0.12302171  0.71896684  1
  Li  Li47  1  0.42936400  0.87697829  0.71896684  1
  Li  Li48  1  0.19045799  0.49842053  0.12678917  1
  Li  Li49  1  0.80954201  0.50157947  0.12678917  1
  Li  Li50  1  0.30954201  0.99842053  0.87321083  1
  Li  Li51  1  0.69045799  0.00157947  0.87321083  1
  Li  Li52  1  0.80954201  0.50157947  0.87321083  1
  Li  Li53  1  0.19045799  0.49842053  0.87321083  1
  Li  Li54  1  0.69045799  0.00157947  0.12678917  1
  Li  Li55  1  0.30954201  0.99842053  0.12678917  1
  Li  Li56  1  0.08975325  0.87639576  0.30206651  1
  Li  Li57  1  0.91024675  0.12360424  0.30206651  1
  Li  Li58  1  0.41024675  0.37639576  0.69793349  1
  Li  Li59  1  0.58975325  0.62360424  0.69793349  1
  Li  Li60  1  0.91024675  0.12360424  0.69793349  1
  Li  Li61  1  0.08975325  0.87639576  0.69793349  1
  Li  Li62  1  0.58975325  0.62360424  0.30206651  1
  Li  Li63  1  0.41024675  0.37639576  0.30206651  1
