# generated using pymatgen
data_LiF
_symmetry_space_group_name_H-M   'P 1'
_cell_length_a   10.18232598
_cell_length_b   10.18232598
_cell_length_c   13.15026706
_cell_angle_alpha   90.00000000
_cell_angle_beta   90.00000000
_cell_angle_gamma   120.00000000
_symmetry_Int_Tables_number   1
_chemical_formula_structural   LiF
_chemical_formula_sum   'Li47 F47'
_cell_volume   1180.75338000
_cell_formula_units_Z   47
loop_
 _symmetry_equiv_pos_site_id
 _symmetry_equiv_pos_as_xyz
  1  'x, y, z'
loop_
 _atom_site_type_symbol
 _atom_site_label
 _atom_site_symmetry_multiplicity
 _atom_site_fract_x
 _atom_site_fract_y
 _atom_site_fract_z
 _atom_site_occupancy
  F  F0  1  0.32888143  0.76479039  0.56782012  1
  F  F1  1  0.23520961  0.56409104  0.56782012  1
  F  F2  1  0.43590896  0.67111857  0.56782012  1
  F  F3  1  0.23520961  0.67111857  0.43217988  1
  F  F4  1  0.43590896  0.76479039  0.43217988  1
  F  F5  1  0.32888143  0.56409104  0.43217988  1
  F  F6  1  0.13617123  0.76661285  0.13880733  1
  F  F7  1  0.23338715  0.36955839  0.13880733  1
  F  F8  1  0.63044161  0.86382877  0.13880733  1
  F  F9  1  0.23338715  0.86382877  0.86119267  1
  F  F10  1  0.63044161  0.76661285  0.86119267  1
  F  F11  1  0.13617123  0.36955839  0.86119267  1
  F  F12  1  0.33333333  0.66666667  0.38534217  1
  F  F13  1  0.33333333  0.66666667  0.61465783  1
  F  F14  1  0.95598304  0.61345150  0.45449778  1
  F  F15  1  0.38654850  0.34253154  0.45449778  1
  F  F16  1  0.65746846  0.04401696  0.45449778  1
  F  F17  1  0.38654850  0.04401696  0.54550222  1
  F  F18  1  0.65746846  0.61345150  0.54550222  1
  F  F19  1  0.95598304  0.34253154  0.54550222  1
  F  F20  1  0.71020191  0.34618018  0.79915297  1
  F  F21  1  0.65381982  0.36402173  0.79915297  1
  F  F22  1  0.63597827  0.28979809  0.79915297  1
  F  F23  1  0.65381982  0.28979809  0.20084703  1
  F  F24  1  0.63597827  0.34618018  0.20084703  1
  F  F25  1  0.71020191  0.36402173  0.20084703  1
  F  F26  1  0.43282403  0.19783133  0.68961876  1
  F  F27  1  0.80216867  0.23499270  0.68961876  1
  F  F28  1  0.76500730  0.56717597  0.68961876  1
  F  F29  1  0.80216867  0.56717597  0.31038124  1
  F  F30  1  0.76500730  0.19783133  0.31038124  1
  F  F31  1  0.43282403  0.23499270  0.31038124  1
  F  F32  1  0.95675141  0.68094346  0.93788198  1
  F  F33  1  0.31905654  0.27580795  0.93788198  1
  F  F34  1  0.72419205  0.04324859  0.93788198  1
  F  F35  1  0.31905654  0.04324859  0.06211802  1
  F  F36  1  0.72419205  0.68094346  0.06211802  1
  F  F37  1  0.95675141  0.27580795  0.06211802  1
  F  F38  1  0.35043792  0.77446071  0.52029405  1
  F  F39  1  0.22553929  0.57597720  0.52029405  1
  F  F40  1  0.42402280  0.64956208  0.52029405  1
  F  F41  1  0.22553929  0.64956208  0.47970595  1
  F  F42  1  0.42402280  0.77446071  0.47970595  1
  F  F43  1  0.35043792  0.57597720  0.47970595  1
  F  F44  1  0.06019233  0.93980767  0.50000000  1
  F  F45  1  0.06019233  0.12038466  0.50000000  1
  F  F46  1  0.87961534  0.93980767  0.50000000  1
  Li  Li47  1  0.41246430  0.57386811  0.77048310  1
  Li  Li48  1  -0.57386811  -0.16140382  0.77048310  1
  Li  Li49  1  0.16140382  -0.41246430  0.77048310  1
  Li  Li50  1  -0.57386811  -0.41246430  -0.77048310  1
  Li  Li51  1  0.16140382  0.57386811  -0.77048310  1
  Li  Li52  1  0.41246430  -0.16140382  -0.77048310  1
  Li  Li53  1  0.10150603  0.72389542  0.01980887  1
  Li  Li54  1  0.27610458  0.37761061  0.01980887  1
  Li  Li55  1  0.62238939  0.89849397  0.01980887  1
  Li  Li56  1  0.27610458  0.89849397  0.98019113  1
  Li  Li57  1  0.62238939  0.72389542  0.98019113  1
  Li  Li58  1  0.10150603  0.37761061  0.98019113  1
  Li  Li59  1  0.32255408  0.11938683  0.25742412  1
  Li  Li60  1  0.88061317  0.20316724  0.25742412  1
  Li  Li61  1  0.79683276  0.67744592  0.25742412  1
  Li  Li62  1  0.88061317  0.67744592  0.74257588  1
  Li  Li63  1  0.79683276  0.11938683  0.74257588  1
  Li  Li64  1  0.32255408  0.20316724  0.74257588  1
  Li  Li65  1  0.24528378  0.75471622  0.50000000  1
  Li  Li66  1  0.24528378  0.49056756  0.50000000  1
  Li  Li67  1  0.50943244  0.75471622  0.50000000  1
  Li  Li68  1  0.00000000  0.00000000  0.50000000  1
  Li  Li69  1  0.78405262  0.29048472  0.22341686  1
  Li  Li70  1  0.70951528  0.49356790  0.22341686  1
  Li  Li71  1  0.50643210  0.21594738  0.22341686  1
  Li  Li72  1  0.70951528  0.21594738  0.77658314  1
  Li  Li73  1  0.50643210  0.29048472  0.77658314  1
  Li  Li74  1  0.78405262  0.49356790  0.77658314  1
  Li  Li75  1  0.05970860  0.94029140  -0.00000000  1
  Li  Li76  1  0.05970860  0.11941719  -0.00000000  1
  Li  Li77  1  0.88058281  0.94029140  0.00000000  1
  Li  Li78  1  0.66666667  0.33333333  0.33028705  1
  Li  Li79  1  0.66666667  0.33333333  0.66971295  1
  Li  Li80  1  0.14019899  0.85980101  0.50000000  1
  Li  Li81  1  0.14019899  0.28039798  0.50000000  1
  Li  Li82  1  0.71960202  0.85980101  0.50000000  1
  Li  Li83  1  0.06112926  0.09704033  0.66981332  1
  Li  Li84  1  0.90295967  0.96408893  0.66981332  1
  Li  Li85  1  0.03591107  0.93887074  0.66981332  1
  Li  Li86  1  0.90295967  0.93887074  0.33018668  1
  Li  Li87  1  0.03591107  0.09704033  0.33018668  1
  Li  Li88  1  0.06112926  0.96408893  0.33018668  1
  Li  Li89  1  0.79145385  0.20854615  0.00000000  1
  Li  Li90  1  0.79145385  0.58290770  0.00000000  1
  Li  Li91  1  0.41709230  0.20854615  -0.00000000  1
  Li  Li92  1  0.00000000  0.00000000  0.07913490  1
  Li  Li93  1  0.00000000  0.00000000  0.92086510  1
