# generated using pymatgen
data_Li2Si4Te3F12
_symmetry_space_group_name_H-M   'P 1'
_cell_length_a   13.47569464
_cell_length_b   13.47569464
_cell_length_c   4.59251926
_cell_angle_alpha   90.00000000
_cell_angle_beta   90.00000000
_cell_angle_gamma   90.00000000
_symmetry_Int_Tables_number   1
_chemical_formula_structural   Li2Si4Te3F12
_chemical_formula_sum   'Li8 Si16 Te12 F48'
_cell_volume   833.97553118
_cell_formula_units_Z   4
loop_
 _symmetry_equiv_pos_site_id
 _symmetry_equiv_pos_as_xyz
  1  'x, y, z'
loop_
 _atom_site_type_symbol
 _atom_site_label
 _atom_site_symmetry_multiplicity
 _atom_site_fract_x
 _atom_site_fract_y
 _atom_site_fract_z
 _atom_site_occupancy
  F  F0  1  0.52474527  0.77474527  0.87500000  1
  F  F1  1  0.97525473  0.22525473  0.37500000  1
  F  F2  1  0.47525473  0.27474527  0.12500000  1
  F  F3  1  0.02474527  0.72525473  0.62500000  1
  F  F4  1  0.47525473  0.22525473  0.12500000  1
  F  F5  1  0.02474527  0.77474527  0.62500000  1
  F  F6  1  0.52474527  0.72525473  0.87500000  1
  F  F7  1  0.97525473  0.27474527  0.37500000  1
  F  F8  1  0.02474527  0.27474527  0.37500000  1
  F  F9  1  0.47525473  0.72525473  0.87500000  1
  F  F10  1  0.97525473  0.77474527  0.62500000  1
  F  F11  1  0.52474527  0.22525473  0.12500000  1
  F  F12  1  0.97525473  0.72525473  0.62500000  1
  F  F13  1  0.52474527  0.27474527  0.12500000  1
  F  F14  1  0.02474527  0.22525473  0.37500000  1
  F  F15  1  0.47525473  0.77474527  0.87500000  1
  F  F16  1  0.53314377  0.87713773  0.12058482  1
  F  F17  1  -0.03314377  -0.87713773  0.62058482  1
  F  F18  1  -0.62713773  1.28314377  0.37058482  1
  F  F19  1  1.12713773  -0.28314377  0.87058482  1
  F  F20  1  -0.03314377  0.87713773  0.37941518  1
  F  F21  1  0.53314377  -0.87713773  -0.12058482  1
  F  F22  1  1.12713773  1.28314377  0.12941518  1
  F  F23  1  -0.62713773  -0.28314377  0.62941518  1
  F  F24  1  -0.53314377  -0.87713773  -0.12058482  1
  F  F25  1  1.03314377  0.87713773  0.37941518  1
  F  F26  1  1.62713773  -0.28314377  0.62941518  1
  F  F27  1  -0.12713773  1.28314377  0.12941518  1
  F  F28  1  1.03314377  -0.87713773  0.62058482  1
  F  F29  1  -0.53314377  0.87713773  0.12058482  1
  F  F30  1  -0.12713773  -0.28314377  0.87058482  1
  F  F31  1  1.62713773  1.28314377  0.37058482  1
  F  F32  1  1.03314377  1.37713773  0.62058482  1
  F  F33  1  0.46685623  -0.37713773  1.12058482  1
  F  F34  1  -0.12713773  1.78314377  0.87058482  1
  F  F35  1  1.62713773  0.21685623  1.37058482  1
  F  F36  1  0.46685623  1.37713773  0.87941518  1
  F  F37  1  1.03314377  -0.37713773  0.37941518  1
  F  F38  1  1.62713773  1.78314377  0.62941518  1
  F  F39  1  -0.12713773  0.21685623  1.12941518  1
  F  F40  1  -0.03314377  -0.37713773  0.37941518  1
  F  F41  1  1.53314377  1.37713773  0.87941518  1
  F  F42  1  2.12713773  0.21685623  1.12941518  1
  F  F43  1  0.37286227  1.78314377  0.62941518  1
  F  F44  1  1.53314377  -0.37713773  1.12058482  1
  F  F45  1  -0.03314377  1.37713773  0.62058482  1
  F  F46  1  0.37286227  0.21685623  1.37058482  1
  F  F47  1  2.12713773  1.78314377  0.87058482  1
  Li  Li48  1  0.00000000  0.00000000  0.00000000  1
  Li  Li49  1  0.50000000  0.00000000  0.50000000  1
  Li  Li50  1  0.25000000  0.75000000  0.25000000  1
  Li  Li51  1  0.25000000  0.25000000  0.75000000  1
  Li  Li52  1  0.50000000  0.50000000  0.50000000  1
  Li  Li53  1  0.00000000  0.50000000  0.00000000  1
  Li  Li54  1  0.75000000  0.25000000  0.75000000  1
  Li  Li55  1  0.75000000  0.75000000  0.25000000  1
  Si  Si56  1  0.00000000  0.34535310  0.43616514  1
  Si  Si57  1  0.50000000  0.65464690  0.93616514  1
  Si  Si58  1  0.90464690  0.75000000  0.68616514  1
  Si  Si59  1  0.59535310  0.25000000  0.18616514  1
  Si  Si60  1  0.50000000  0.34535310  0.06383486  1
  Si  Si61  1  0.00000000  0.65464690  0.56383486  1
  Si  Si62  1  0.59535310  0.75000000  0.81383486  1
  Si  Si63  1  0.90464690  0.25000000  0.31383486  1
  Si  Si64  1  0.50000000  0.84535310  0.93616514  1
  Si  Si65  1  0.00000000  0.15464690  0.43616514  1
  Si  Si66  1  0.40464690  0.25000000  0.18616514  1
  Si  Si67  1  0.09535310  0.75000000  0.68616514  1
  Si  Si68  1  0.00000000  0.84535310  0.56383486  1
  Si  Si69  1  0.50000000  0.15464690  0.06383486  1
  Si  Si70  1  0.09535310  0.25000000  0.31383486  1
  Si  Si71  1  0.40464690  0.75000000  0.81383486  1
  Te  Te72  1  0.00000000  0.00000000  0.50000000  1
  Te  Te73  1  0.50000000  0.00000000  0.00000000  1
  Te  Te74  1  0.25000000  0.75000000  0.75000000  1
  Te  Te75  1  0.25000000  0.25000000  0.25000000  1
  Te  Te76  1  0.50000000  0.50000000  0.00000000  1
  Te  Te77  1  0.00000000  0.50000000  0.50000000  1
  Te  Te78  1  0.75000000  0.25000000  0.25000000  1
  Te  Te79  1  0.75000000  0.75000000  0.75000000  1
  Te  Te80  1  0.00000000  0.75000000  0.12500000  1
  Te  Te81  1  0.50000000  0.75000000  0.37500000  1
  Te  Te82  1  0.50000000  0.25000000  0.62500000  1
  Te  Te83  1  0.00000000  0.25000000  0.87500000  1
