# generated using pymatgen
data_LiF
_symmetry_space_group_name_H-M   'P 1'
_cell_length_a   8.91329440
_cell_length_b   5.60829303
_cell_length_c   10.35531345
_cell_angle_alpha   90.00000000
_cell_angle_beta   90.00000000
_cell_angle_gamma   90.00000000
_symmetry_Int_Tables_number   1
_chemical_formula_structural   LiF
_chemical_formula_sum   'Li24 F24'
_cell_volume   517.64520758
_cell_formula_units_Z   24
loop_
 _symmetry_equiv_pos_site_id
 _symmetry_equiv_pos_as_xyz
  1  'x, y, z'
loop_
 _atom_site_type_symbol
 _atom_site_label
 _atom_site_symmetry_multiplicity
 _atom_site_fract_x
 _atom_site_fract_y
 _atom_site_fract_z
 _atom_site_occupancy
  F  F0  1  0.99804037  0.25000000  0.77373825  1
  F  F1  1  0.50195963  0.75000000  0.27373825  1
  F  F2  1  0.00195963  0.75000000  0.22626175  1
  F  F3  1  0.49804037  0.25000000  0.72626175  1
  F  F4  1  0.00000000  0.00000000  0.50000000  1
  F  F5  1  0.50000000  0.00000000  0.00000000  1
  F  F6  1  0.00000000  0.50000000  0.50000000  1
  F  F7  1  0.50000000  0.50000000  0.00000000  1
  F  F8  1  0.94347873  0.13092835  0.91138822  1
  F  F9  1  0.55652127  0.86907165  0.41138822  1
  F  F10  1  0.05652127  0.63092835  0.08861178  1
  F  F11  1  0.44347873  0.36907165  0.58861178  1
  F  F12  1  0.05652127  0.86907165  0.08861178  1
  F  F13  1  0.44347873  0.13092835  0.58861178  1
  F  F14  1  0.94347873  0.36907165  0.91138822  1
  F  F15  1  0.55652127  0.63092835  0.41138822  1
  F  F16  1  0.50927016  0.62682689  0.08299950  1
  F  F17  1  0.99072984  0.37317311  0.58299950  1
  F  F18  1  0.49072984  0.12682689  0.91700050  1
  F  F19  1  0.00927016  0.87317311  0.41700050  1
  F  F20  1  0.49072984  0.37317311  0.91700050  1
  F  F21  1  0.00927016  0.62682689  0.41700050  1
  F  F22  1  0.50927016  0.87317311  0.08299950  1
  F  F23  1  0.99072984  0.12682689  0.58299950  1
  Li  Li24  1  0.66815734  0.25000000  0.78208216  1
  Li  Li25  1  0.83184266  0.75000000  0.28208216  1
  Li  Li26  1  0.33184266  0.75000000  0.21791784  1
  Li  Li27  1  0.16815734  0.25000000  0.71791784  1
  Li  Li28  1  0.00000000  0.00000000  0.00000000  1
  Li  Li29  1  0.50000000  0.00000000  0.50000000  1
  Li  Li30  1  0.00000000  0.50000000  0.00000000  1
  Li  Li31  1  0.50000000  0.50000000  0.50000000  1
  Li  Li32  1  0.52064200  0.25000000  0.47935014  1
  Li  Li33  1  0.97935800  0.75000000  0.97935014  1
  Li  Li34  1  0.47935800  0.75000000  0.52064986  1
  Li  Li35  1  0.02064200  0.25000000  0.02064986  1
  Li  Li36  1  0.85138581  0.02411828  0.18262705  1
  Li  Li37  1  -0.35138581  -0.02411828  0.68262705  1
  Li  Li38  1  -0.85138581  0.52411828  -0.18262705  1
  Li  Li39  1  1.35138581  0.47588172  0.31737295  1
  Li  Li40  1  -0.85138581  -0.02411828  -0.18262705  1
  Li  Li41  1  1.35138581  0.02411828  0.31737295  1
  Li  Li42  1  0.85138581  0.47588172  0.18262705  1
  Li  Li43  1  -0.35138581  0.52411828  0.68262705  1
  Li  Li44  1  0.95780007  0.25000000  0.17529174  1
  Li  Li45  1  0.54219993  0.75000000  0.67529174  1
  Li  Li46  1  0.04219993  0.75000000  0.82470826  1
  Li  Li47  1  0.45780007  0.25000000  0.32470826  1
