# generated using pymatgen
data_LiYTe2P
_symmetry_space_group_name_H-M   'P 1'
_cell_length_a   5.53470885
_cell_length_b   5.79899114
_cell_length_c   7.18726442
_cell_angle_alpha   93.69813120
_cell_angle_beta   97.28848979
_cell_angle_gamma   103.65377557
_symmetry_Int_Tables_number   1
_chemical_formula_structural   LiYTe2P
_chemical_formula_sum   'Li2 Y2 Te4 P2'
_cell_volume   221.28020684
_cell_formula_units_Z   2
loop_
 _symmetry_equiv_pos_site_id
 _symmetry_equiv_pos_as_xyz
  1  'x, y, z'
loop_
 _atom_site_type_symbol
 _atom_site_label
 _atom_site_symmetry_multiplicity
 _atom_site_fract_x
 _atom_site_fract_y
 _atom_site_fract_z
 _atom_site_occupancy
  Te  Te0  1  0.00000000  0.00000000  0.00000000  1
  Te  Te1  1  0.50000000  0.50000000  0.50000000  1
  Te  Te2  1  0.50000000  0.50000000  0.00000000  1
  Te  Te3  1  0.50000000  0.00000000  0.50000000  1
  Y  Y4  1  0.00000000  0.50000000  0.50000000  1
  Y  Y5  1  0.97292673  0.49543072  0.24874229  1
  P  P6  1  0.99606092  0.26249182  0.64546328  1
  P  P7  1  0.79781987  0.27755581  0.30848210  1
  Li  Li8  1  0.27157771  0.93788896  0.53233556  1
  Li  Li9  1  0.18219452  0.51354749  0.10944577  1
