# generated using pymatgen
data_LiY2PSe
_symmetry_space_group_name_H-M   'P 1'
_cell_length_a   5.11691898
_cell_length_b   5.17323893
_cell_length_c   6.24933887
_cell_angle_alpha   93.94246104
_cell_angle_beta   95.87036413
_cell_angle_gamma   101.57668208
_symmetry_Int_Tables_number   1
_chemical_formula_structural   LiY2PSe
_chemical_formula_sum   'Li1 Y2 P1 Se1'
_cell_volume   160.53342200
_cell_formula_units_Z   1
loop_
 _symmetry_equiv_pos_site_id
 _symmetry_equiv_pos_as_xyz
  1  'x, y, z'
loop_
 _atom_site_type_symbol
 _atom_site_label
 _atom_site_symmetry_multiplicity
 _atom_site_fract_x
 _atom_site_fract_y
 _atom_site_fract_z
 _atom_site_occupancy
  Se  Se0  1  0.00000000  0.00000000  0.00000000  1
  Y  Y1  1  0.33300000  0.66700000  0.25000000  1
  Y  Y2  1  0.66700000  0.33300000  0.50000000  1
  P  P3  1  0.00000000  0.00000000  0.75000000  1
  Li  Li4  1  0.55556169  0.21619096  0.55971274  1
