# generated using pymatgen
data_LiF
_symmetry_space_group_name_H-M   'P 1'
_cell_length_a   8.91791413
_cell_length_b   8.91791413
_cell_length_c   10.76374674
_cell_angle_alpha   90.00000000
_cell_angle_beta   90.00000000
_cell_angle_gamma   120.00000000
_symmetry_Int_Tables_number   1
_chemical_formula_structural   LiF
_chemical_formula_sum   'Li26 F26'
_cell_volume   741.34553338
_cell_formula_units_Z   26
loop_
 _symmetry_equiv_pos_site_id
 _symmetry_equiv_pos_as_xyz
  1  'x, y, z'
loop_
 _atom_site_type_symbol
 _atom_site_label
 _atom_site_symmetry_multiplicity
 _atom_site_fract_x
 _atom_site_fract_y
 _atom_site_fract_z
 _atom_site_occupancy
  F  F0  1  0.56010458  0.77648251  0.09176970  1
  F  F1  1  0.22351749  0.78362207  0.09176970  1
  F  F2  1  0.21637793  0.43989542  0.09176970  1
  F  F3  1  0.22351749  0.43989542  0.90823030  1
  F  F4  1  0.21637793  0.77648251  0.90823030  1
  F  F5  1  0.56010458  0.78362207  0.90823030  1
  F  F6  1  0.00000000  0.00000000  0.90986433  1
  F  F7  1  0.00000000  0.00000000  0.09013567  1
  F  F8  1  0.75212510  0.51827178  0.91489050  1
  F  F9  1  0.48172822  0.23385332  0.91489050  1
  F  F10  1  0.76614668  0.24787490  0.91489050  1
  F  F11  1  0.48172822  0.24787490  0.08510950  1
  F  F12  1  0.76614668  0.51827178  0.08510950  1
  F  F13  1  0.75212510  0.23385332  0.08510950  1
  F  F14  1  0.66666667  0.33333333  0.00000000  1
  F  F15  1  0.33333333  0.66666667  0.00000000  1
  F  F16  1  0.73272373  0.30268496  0.26115266  1
  F  F17  1  0.69731504  0.43003876  0.26115266  1
  F  F18  1  0.56996124  0.26727627  0.26115266  1
  F  F19  1  0.69731504  0.26727627  0.73884734  1
  F  F20  1  0.56996124  0.30268496  0.73884734  1
  F  F21  1  0.73272373  0.43003876  0.73884734  1
  F  F22  1  0.91796466  0.08203534  0.50000000  1
  F  F23  1  0.91796466  0.83592933  0.50000000  1
  F  F24  1  0.16407067  0.08203534  0.50000000  1
  F  F25  1  0.00000000  0.00000000  0.00000000  1
  Li  Li26  1  0.32469372  0.50651400  0.30888938  1
  Li  Li27  1  -0.50651400  -0.18182028  0.30888938  1
  Li  Li28  1  0.18182028  -0.32469372  0.30888938  1
  Li  Li29  1  -0.50651400  -0.32469372  -0.30888938  1
  Li  Li30  1  0.18182028  0.50651400  -0.30888938  1
  Li  Li31  1  0.32469372  -0.18182028  -0.30888938  1
  Li  Li32  1  0.13681170  0.86318830  0.50000000  1
  Li  Li33  1  0.13681170  0.27362340  0.50000000  1
  Li  Li34  1  0.72637660  0.86318830  0.50000000  1
  Li  Li35  1  0.33333333  0.66666667  0.61923285  1
  Li  Li36  1  0.33333333  0.66666667  0.38076715  1
  Li  Li37  1  0.42317332  0.08298500  0.08261880  1
  Li  Li38  1  0.91701500  0.34018832  0.08261880  1
  Li  Li39  1  0.65981168  0.57682668  0.08261880  1
  Li  Li40  1  0.91701500  0.57682668  0.91738120  1
  Li  Li41  1  0.65981168  0.08298500  0.91738120  1
  Li  Li42  1  0.42317332  0.34018832  0.91738120  1
  Li  Li43  1  0.66666667  0.33333333  0.50000000  1
  Li  Li44  1  0.00000000  0.00000000  0.63721352  1
  Li  Li45  1  0.00000000  0.00000000  0.36278648  1
  Li  Li46  1  0.61068138  0.00537543  0.52312430  1
  Li  Li47  1  0.99462457  0.60530595  0.52312430  1
  Li  Li48  1  0.39469405  0.38931862  0.52312430  1
  Li  Li49  1  0.99462457  0.38931862  0.47687570  1
  Li  Li50  1  0.39469405  0.00537543  0.47687570  1
  Li  Li51  1  0.61068138  0.60530595  0.47687570  1
