# generated using pymatgen
data_LiF
_symmetry_space_group_name_H-M   'P 1'
_cell_length_a   6.80747933
_cell_length_b   3.93915278
_cell_length_c   8.22456227
_cell_angle_alpha   90.00000000
_cell_angle_beta   90.00000000
_cell_angle_gamma   90.00000000
_symmetry_Int_Tables_number   1
_chemical_formula_structural   LiF
_chemical_formula_sum   'Li8 F8'
_cell_volume   220.54740396
_cell_formula_units_Z   8
loop_
 _symmetry_equiv_pos_site_id
 _symmetry_equiv_pos_as_xyz
  1  'x, y, z'
loop_
 _atom_site_type_symbol
 _atom_site_label
 _atom_site_symmetry_multiplicity
 _atom_site_fract_x
 _atom_site_fract_y
 _atom_site_fract_z
 _atom_site_occupancy
  F  F0  1  0.50943165  0.73329908  0.62866689  1
  F  F1  1  -0.50943165  -0.73329908  0.62866689  1
  F  F2  1  -0.00943165  1.23329908  -0.12866689  1
  F  F3  1  1.00943165  -0.23329908  -0.12866689  1
  F  F4  1  -0.50943165  -0.73329908  -0.62866689  1
  F  F5  1  0.50943165  0.73329908  -0.62866689  1
  F  F6  1  1.00943165  -0.23329908  1.12866689  1
  F  F7  1  -0.00943165  1.23329908  1.12866689  1
  Li  Li8  1  0.54995912  0.20375407  0.25090215  1
  Li  Li9  1  0.45004088  0.79624593  0.25090215  1
  Li  Li10  1  0.95004088  0.70375407  0.24909785  1
  Li  Li11  1  0.04995912  0.29624593  0.24909785  1
  Li  Li12  1  0.45004088  0.79624593  0.74909785  1
  Li  Li13  1  0.54995912  0.20375407  0.74909785  1
  Li  Li14  1  0.04995912  0.29624593  0.75090215  1
  Li  Li15  1  0.95004088  0.70375407  0.75090215  1
