# generated using pymatgen
data_LiF
_symmetry_space_group_name_H-M   'P 1'
_cell_length_a   7.90246439
_cell_length_b   7.90246439
_cell_length_c   35.34306220
_cell_angle_alpha   90.00000000
_cell_angle_beta   90.00000000
_cell_angle_gamma   120.00000000
_symmetry_Int_Tables_number   1
_chemical_formula_structural   LiF
_chemical_formula_sum   'Li78 F78'
_cell_volume   1911.43661842
_cell_formula_units_Z   78
loop_
 _symmetry_equiv_pos_site_id
 _symmetry_equiv_pos_as_xyz
  1  'x, y, z'
loop_
 _atom_site_type_symbol
 _atom_site_label
 _atom_site_symmetry_multiplicity
 _atom_site_fract_x
 _atom_site_fract_y
 _atom_site_fract_z
 _atom_site_occupancy
  F  F0  1  0.50000000  0.00000000  -0.00000000  1
  F  F1  1  0.00000000  0.50000000  0.00000000  1
  F  F2  1  0.50000000  0.50000000  0.00000000  1
  F  F3  1  0.00000000  0.50000000  0.50000000  1
  F  F4  1  0.50000000  0.00000000  0.50000000  1
  F  F5  1  0.50000000  0.50000000  0.50000000  1
  F  F6  1  0.16666667  0.33333333  0.33333333  1
  F  F7  1  0.66666667  0.83333333  0.33333333  1
  F  F8  1  0.16666667  0.83333333  0.33333333  1
  F  F9  1  0.66666667  0.83333333  0.83333333  1
  F  F10  1  0.16666667  0.33333333  0.83333333  1
  F  F11  1  0.16666667  0.83333333  0.83333333  1
  F  F12  1  0.83333333  0.66666667  0.66666667  1
  F  F13  1  0.33333333  0.16666667  0.66666667  1
  F  F14  1  0.83333333  0.16666667  0.66666667  1
  F  F15  1  0.33333333  0.16666667  0.16666667  1
  F  F16  1  0.83333333  0.66666667  0.16666667  1
  F  F17  1  0.83333333  0.16666667  0.16666667  1
  F  F18  1  0.26268883  0.51956618  0.90894601  1
  F  F19  1  0.48043382  0.74312265  0.90894601  1
  F  F20  1  0.25687735  0.73731117  0.90894601  1
  F  F21  1  0.51956618  0.26268883  0.59105399  1
  F  F22  1  0.74312265  0.48043382  0.59105399  1
  F  F23  1  0.73731117  0.25687735  0.59105399  1
  F  F24  1  0.73731117  0.48043382  0.09105399  1
  F  F25  1  0.51956618  0.25687735  0.09105399  1
  F  F26  1  0.74312265  0.26268883  0.09105399  1
  F  F27  1  0.48043382  0.73731117  0.40894601  1
  F  F28  1  0.25687735  0.51956618  0.40894601  1
  F  F29  1  0.26268883  0.74312265  0.40894601  1
  F  F30  1  0.92935550  0.85289951  0.24227934  1
  F  F31  1  0.14710049  0.07645599  0.24227934  1
  F  F32  1  0.92354401  0.07064450  0.24227934  1
  F  F33  1  0.18623284  0.59602216  0.92438732  1
  F  F34  1  0.40978932  0.81376716  0.92438732  1
  F  F35  1  0.40397784  0.59021068  0.92438732  1
  F  F36  1  0.40397784  0.81376716  0.42438732  1
  F  F37  1  0.18623284  0.59021068  0.42438732  1
  F  F38  1  0.40978932  0.59602216  0.42438732  1
  F  F39  1  0.14710049  0.07064450  0.74227934  1
  F  F40  1  0.92354401  0.85289951  0.74227934  1
  F  F41  1  0.92935550  0.07645599  0.74227934  1
  F  F42  1  0.59602216  0.18623284  0.57561268  1
  F  F43  1  0.81376716  0.40978932  0.57561268  1
  F  F44  1  0.59021068  0.40397784  0.57561268  1
  F  F45  1  0.85289951  0.92935550  0.25772066  1
  F  F46  1  0.07645599  0.14710049  0.25772066  1
  F  F47  1  0.07064450  0.92354401  0.25772066  1
  F  F48  1  0.07064450  0.14710049  0.75772066  1
  F  F49  1  0.85289951  0.92354401  0.75772066  1
  F  F50  1  0.07645599  0.92935550  0.75772066  1
  F  F51  1  0.81376716  0.40397784  0.07561268  1
  F  F52  1  0.59021068  0.18623284  0.07561268  1
  F  F53  1  0.59602216  0.40978932  0.07561268  1
  F  F54  1  0.00000000  0.00000000  0.83871000  1
  F  F55  1  0.00000000  0.00000000  0.66129000  1
  F  F56  1  0.00000000  0.00000000  0.16129000  1
  F  F57  1  0.00000000  0.00000000  0.33871000  1
  F  F58  1  0.66666667  0.33333333  0.17204333  1
  F  F59  1  0.66666667  0.33333333  0.99462334  1
  F  F60  1  0.66666667  0.33333333  0.49462334  1
  F  F61  1  0.66666667  0.33333333  0.67204333  1
  F  F62  1  0.33333333  0.66666667  0.50537666  1
  F  F63  1  0.33333333  0.66666667  0.32795667  1
  F  F64  1  0.33333333  0.66666667  0.82795667  1
  F  F65  1  0.33333333  0.66666667  0.00537666  1
  F  F66  1  0.00000000  0.00000000  0.21141481  1
  F  F67  1  0.00000000  0.00000000  0.28858519  1
  F  F68  1  0.00000000  0.00000000  0.78858519  1
  F  F69  1  0.00000000  0.00000000  0.71141481  1
  F  F70  1  0.66666667  0.33333333  0.54474815  1
  F  F71  1  0.66666667  0.33333333  0.62191852  1
  F  F72  1  0.66666667  0.33333333  0.12191852  1
  F  F73  1  0.66666667  0.33333333  0.04474815  1
  F  F74  1  0.33333333  0.66666667  0.87808148  1
  F  F75  1  0.33333333  0.66666667  0.95525185  1
  F  F76  1  0.33333333  0.66666667  0.45525185  1
  F  F77  1  0.33333333  0.66666667  0.37808148  1
  Li  Li78  1  0.38212507  0.06810751  0.67423094  1
  Li  Li79  1  -0.06810751  0.31401756  0.67423094  1
  Li  Li80  1  -0.31401756  -0.38212507  0.67423094  1
  Li  Li81  1  0.06810751  0.38212507  -0.17423094  1
  Li  Li82  1  0.31401756  -0.06810751  -0.17423094  1
  Li  Li83  1  -0.38212507  -0.31401756  -0.17423094  1
  Li  Li84  1  -0.38212507  -0.06810751  -0.67423094  1
  Li  Li85  1  0.06810751  -0.31401756  -0.67423094  1
  Li  Li86  1  0.31401756  0.38212507  -0.67423094  1
  Li  Li87  1  -0.06810751  -0.38212507  1.17423094  1
  Li  Li88  1  -0.31401756  0.06810751  1.17423094  1
  Li  Li89  1  0.38212507  0.31401756  1.17423094  1
  Li  Li90  1  1.04879174  0.40144085  1.00756427  1
  Li  Li91  1  0.59855915  0.64735089  1.00756427  1
  Li  Li92  1  0.35264911  -0.04879174  1.00756427  1
  Li  Li93  1  0.73477418  0.71545841  0.15910239  1
  Li  Li94  1  0.98068423  0.26522582  0.15910239  1
  Li  Li95  1  0.28454159  0.01931577  0.15910239  1
  Li  Li96  1  0.28454159  0.26522582  -0.34089761  1
  Li  Li97  1  0.73477418  0.01931577  -0.34089761  1
  Li  Li98  1  0.98068423  0.71545841  -0.34089761  1
  Li  Li99  1  0.59855915  -0.04879174  1.50756427  1
  Li  Li100  1  0.35264911  0.40144085  1.50756427  1
  Li  Li101  1  1.04879174  0.64735089  1.50756427  1
  Li  Li102  1  0.71545841  0.73477418  1.34089761  1
  Li  Li103  1  0.26522582  0.98068423  1.34089761  1
  Li  Li104  1  0.01931577  0.28454159  1.34089761  1
  Li  Li105  1  0.40144085  1.04879174  0.49243573  1
  Li  Li106  1  0.64735089  0.59855915  0.49243573  1
  Li  Li107  1  -0.04879174  0.35264911  0.49243573  1
  Li  Li108  1  -0.04879174  0.59855915  -0.00756427  1
  Li  Li109  1  0.40144085  0.35264911  -0.00756427  1
  Li  Li110  1  0.64735089  1.04879174  -0.00756427  1
  Li  Li111  1  0.26522582  0.28454159  1.84089761  1
  Li  Li112  1  0.01931577  0.73477418  1.84089761  1
  Li  Li113  1  0.71545841  0.98068423  1.84089761  1
  Li  Li114  1  0.00000000  0.00000000  0.00000000  1
  Li  Li115  1  0.00000000  0.00000000  0.50000000  1
  Li  Li116  1  0.66666667  0.33333333  0.33333333  1
  Li  Li117  1  0.66666667  0.33333333  0.83333333  1
  Li  Li118  1  0.33333333  0.66666667  0.66666667  1
  Li  Li119  1  0.33333333  0.66666667  0.16666667  1
  Li  Li120  1  0.18678569  0.26755697  0.47529132  1
  Li  Li121  1  0.73244303  0.91922872  0.47529132  1
  Li  Li122  1  0.08077128  0.81321431  0.47529132  1
  Li  Li123  1  0.26755697  0.18678569  0.02470868  1
  Li  Li124  1  0.91922872  0.73244303  0.02470868  1
  Li  Li125  1  0.81321431  0.08077128  0.02470868  1
  Li  Li126  1  0.81321431  0.73244303  0.52470868  1
  Li  Li127  1  0.26755697  0.08077128  0.52470868  1
  Li  Li128  1  0.91922872  0.18678569  0.52470868  1
  Li  Li129  1  0.73244303  0.81321431  0.97529132  1
  Li  Li130  1  0.08077128  0.26755697  0.97529132  1
  Li  Li131  1  0.18678569  0.91922872  0.97529132  1
  Li  Li132  1  0.85345236  0.60089031  0.80862465  1
  Li  Li133  1  0.39910969  0.25256205  0.80862465  1
  Li  Li134  1  0.74743795  0.14654764  0.80862465  1
  Li  Li135  1  0.93422364  0.52011902  0.35804201  1
  Li  Li136  1  0.58589538  0.06577636  0.35804201  1
  Li  Li137  1  0.47988098  0.41410462  0.35804201  1
  Li  Li138  1  0.47988098  0.06577636  0.85804201  1
  Li  Li139  1  0.93422364  0.41410462  0.85804201  1
  Li  Li140  1  0.58589538  0.52011902  0.85804201  1
  Li  Li141  1  0.39910969  0.14654764  0.30862465  1
  Li  Li142  1  0.74743795  0.60089031  0.30862465  1
  Li  Li143  1  0.85345236  0.25256205  0.30862465  1
  Li  Li144  1  0.52011902  0.93422364  0.14195799  1
  Li  Li145  1  0.06577636  0.58589538  0.14195799  1
  Li  Li146  1  0.41410462  0.47988098  0.14195799  1
  Li  Li147  1  0.60089031  0.85345236  0.69137535  1
  Li  Li148  1  0.25256205  0.39910969  0.69137535  1
  Li  Li149  1  0.14654764  0.74743795  0.69137535  1
  Li  Li150  1  0.14654764  0.39910969  0.19137535  1
  Li  Li151  1  0.60089031  0.74743795  0.19137535  1
  Li  Li152  1  0.25256205  0.85345236  0.19137535  1
  Li  Li153  1  0.06577636  0.47988098  0.64195799  1
  Li  Li154  1  0.41410462  0.93422364  0.64195799  1
  Li  Li155  1  0.52011902  0.58589538  0.64195799  1
