# generated using pymatgen
data_Li2Y2P2Se
_symmetry_space_group_name_H-M   'P 1'
_cell_length_a   4.72965648
_cell_length_b   4.86023621
_cell_length_c   6.75697773
_cell_angle_alpha   95.03079334
_cell_angle_beta   100.31128297
_cell_angle_gamma   109.19557594
_symmetry_Int_Tables_number   1
_chemical_formula_structural   Li2Y2P2Se
_chemical_formula_sum   'Li2 Y2 P2 Se1'
_cell_volume   142.51323123
_cell_formula_units_Z   1
loop_
 _symmetry_equiv_pos_site_id
 _symmetry_equiv_pos_as_xyz
  1  'x, y, z'
loop_
 _atom_site_type_symbol
 _atom_site_label
 _atom_site_symmetry_multiplicity
 _atom_site_fract_x
 _atom_site_fract_y
 _atom_site_fract_z
 _atom_site_occupancy
  Y  Y0  1  0.00000000  0.00000000  0.00000000  1
  Y  Y1  1  0.50000000  0.50000000  0.50000000  1
  P  P2  1  0.50000000  0.50000000  0.00000000  1
  P  P3  1  0.50000000  0.00000000  0.50000000  1
  Se  Se4  1  0.00000000  0.50000000  0.50000000  1
  Li  Li5  1  0.44891614  0.11968131  0.63389064  1
  Li  Li6  1  0.95312354  0.32125700  0.48883059  1
