# generated using pymatgen
data_Li2Si4Te3F12
_symmetry_space_group_name_H-M   'P 1'
_cell_length_a   9.36720886
_cell_length_b   9.36720886
_cell_length_c   19.40333325
_cell_angle_alpha   90.00000000
_cell_angle_beta   90.00000000
_cell_angle_gamma   120.00000000
_symmetry_Int_Tables_number   1
_chemical_formula_structural   Li2Si4Te3F12
_chemical_formula_sum   'Li8 Si16 Te12 F48'
_cell_volume   1474.44094223
_cell_formula_units_Z   4
loop_
 _symmetry_equiv_pos_site_id
 _symmetry_equiv_pos_as_xyz
  1  'x, y, z'
loop_
 _atom_site_type_symbol
 _atom_site_label
 _atom_site_symmetry_multiplicity
 _atom_site_fract_x
 _atom_site_fract_y
 _atom_site_fract_z
 _atom_site_occupancy
  F  F0  1  0.00000000  0.00000000  0.09132519  1
  F  F1  1  0.00000000  0.00000000  0.59132519  1
  F  F2  1  0.00000000  0.00000000  0.90867481  1
  F  F3  1  0.00000000  0.00000000  0.40867481  1
  F  F4  1  0.00000000  0.00000000  0.37801087  1
  F  F5  1  0.00000000  0.00000000  0.87801087  1
  F  F6  1  0.00000000  0.00000000  0.62198913  1
  F  F7  1  0.00000000  0.00000000  0.12198913  1
  F  F8  1  0.10864922  0.33114634  0.31359594  1
  F  F9  1  0.66885366  0.77750287  0.31359594  1
  F  F10  1  0.22249713  0.89135078  0.31359594  1
  F  F11  1  0.89135078  0.66885366  0.81359594  1
  F  F12  1  0.33114634  0.22249713  0.81359594  1
  F  F13  1  0.77750287  0.10864922  0.81359594  1
  F  F14  1  0.89135078  0.66885366  0.68640406  1
  F  F15  1  0.33114634  0.22249713  0.68640406  1
  F  F16  1  0.77750287  0.10864922  0.68640406  1
  F  F17  1  0.10864922  0.33114634  0.18640406  1
  F  F18  1  0.66885366  0.77750287  0.18640406  1
  F  F19  1  0.22249713  0.89135078  0.18640406  1
  F  F20  1  0.40465697  0.95706914  0.43831525  1
  F  F21  1  0.04293086  0.44758783  0.43831525  1
  F  F22  1  0.55241217  0.59534303  0.43831525  1
  F  F23  1  0.59534303  0.04293086  0.93831525  1
  F  F24  1  0.95706914  0.55241217  0.93831525  1
  F  F25  1  0.44758783  0.40465697  0.93831525  1
  F  F26  1  0.59534303  0.04293086  0.56168475  1
  F  F27  1  0.95706914  0.55241217  0.56168475  1
  F  F28  1  0.44758783  0.40465697  0.56168475  1
  F  F29  1  0.40465697  0.95706914  0.06168475  1
  F  F30  1  0.04293086  0.44758783  0.06168475  1
  F  F31  1  0.55241217  0.59534303  0.06168475  1
  F  F32  1  0.65054260  0.48162553  0.68319523  1
  F  F33  1  0.51837447  0.16891707  0.68319523  1
  F  F34  1  0.83108293  0.34945740  0.68319523  1
  F  F35  1  0.34945740  0.51837447  0.18319523  1
  F  F36  1  0.48162553  0.83108293  0.18319523  1
  F  F37  1  0.16891707  0.65054260  0.18319523  1
  F  F38  1  0.34945740  0.51837447  0.31680477  1
  F  F39  1  0.48162553  0.83108293  0.31680477  1
  F  F40  1  0.16891707  0.65054260  0.31680477  1
  F  F41  1  0.65054260  0.48162553  0.81680477  1
  F  F42  1  0.51837447  0.16891707  0.81680477  1
  F  F43  1  0.83108293  0.34945740  0.81680477  1
  F  F44  1  0.00000000  0.00000000  0.54586938  1
  F  F45  1  0.00000000  0.00000000  0.04586938  1
  F  F46  1  0.00000000  0.00000000  0.45413062  1
  F  F47  1  0.00000000  0.00000000  0.95413062  1
  Li  Li48  1  0.50000000  0.00000000  -0.00000000  1
  Li  Li49  1  0.00000000  0.50000000  0.00000000  1
  Li  Li50  1  0.50000000  0.50000000  0.00000000  1
  Li  Li51  1  0.50000000  0.00000000  0.50000000  1
  Li  Li52  1  0.00000000  0.50000000  0.50000000  1
  Li  Li53  1  0.50000000  0.50000000  0.50000000  1
  Li  Li54  1  0.00000000  0.00000000  0.25000000  1
  Li  Li55  1  0.00000000  0.00000000  0.75000000  1
  Si  Si56  1  0.33629819  0.18822089  0.31551434  1
  Si  Si57  1  -0.18822089  0.14807731  0.31551434  1
  Si  Si58  1  -0.14807731  -0.33629819  0.31551434  1
  Si  Si59  1  -0.33629819  -0.18822089  0.81551434  1
  Si  Si60  1  0.18822089  -0.14807731  0.81551434  1
  Si  Si61  1  0.14807731  0.33629819  0.81551434  1
  Si  Si62  1  -0.33629819  -0.18822089  -0.31551434  1
  Si  Si63  1  0.18822089  -0.14807731  -0.31551434  1
  Si  Si64  1  0.14807731  0.33629819  -0.31551434  1
  Si  Si65  1  0.33629819  0.18822089  0.18448566  1
  Si  Si66  1  -0.18822089  0.14807731  0.18448566  1
  Si  Si67  1  -0.14807731  -0.33629819  0.18448566  1
  Si  Si68  1  0.66666667  0.33333333  0.25000000  1
  Si  Si69  1  0.33333333  0.66666667  0.75000000  1
  Si  Si70  1  0.00000000  0.00000000  0.00000000  1
  Si  Si71  1  0.00000000  0.00000000  0.50000000  1
  Te  Te72  1  0.17620683  0.25125802  0.25000000  1
  Te  Te73  1  0.74874198  0.92494880  0.25000000  1
  Te  Te74  1  0.07505120  0.82379317  0.25000000  1
  Te  Te75  1  0.82379317  0.74874198  0.75000000  1
  Te  Te76  1  0.25125802  0.07505120  0.75000000  1
  Te  Te77  1  0.92494880  0.17620683  0.75000000  1
  Te  Te78  1  0.76418767  0.48660819  0.25000000  1
  Te  Te79  1  0.51339181  0.27757948  0.25000000  1
  Te  Te80  1  0.72242052  0.23581233  0.25000000  1
  Te  Te81  1  0.23581233  0.51339181  0.75000000  1
  Te  Te82  1  0.48660819  0.72242052  0.75000000  1
  Te  Te83  1  0.27757948  0.76418767  0.75000000  1
