# generated using pymatgen
data_LiF
_symmetry_space_group_name_H-M   'P 1'
_cell_length_a   5.72860572
_cell_length_b   15.04015929
_cell_length_c   10.44249032
_cell_angle_alpha   90.00000000
_cell_angle_beta   90.00000000
_cell_angle_gamma   90.00000000
_symmetry_Int_Tables_number   1
_chemical_formula_structural   LiF
_chemical_formula_sum   'Li60 F60'
_cell_volume   899.71601098
_cell_formula_units_Z   60
loop_
 _symmetry_equiv_pos_site_id
 _symmetry_equiv_pos_as_xyz
  1  'x, y, z'
loop_
 _atom_site_type_symbol
 _atom_site_label
 _atom_site_symmetry_multiplicity
 _atom_site_fract_x
 _atom_site_fract_y
 _atom_site_fract_z
 _atom_site_occupancy
  F  F0  1  0.87775547  0.25000000  0.96589639  1
  F  F1  1  0.62224453  0.75000000  0.46589639  1
  F  F2  1  0.12224453  0.75000000  0.03410361  1
  F  F3  1  0.37775547  0.25000000  0.53410361  1
  F  F4  1  0.42477286  0.99561916  0.61938233  1
  F  F5  1  0.07522714  0.00438084  0.11938233  1
  F  F6  1  0.57522714  0.49561916  0.38061767  1
  F  F7  1  0.92477286  0.50438084  0.88061767  1
  F  F8  1  0.57522714  0.00438084  0.38061767  1
  F  F9  1  0.92477286  0.99561916  0.88061767  1
  F  F10  1  0.42477286  0.50438084  0.61938233  1
  F  F11  1  0.07522714  0.49561916  0.11938233  1
  F  F12  1  0.45011088  0.37070004  0.32322482  1
  F  F13  1  0.04988912  0.62929996  0.82322482  1
  F  F14  1  0.54988912  0.87070004  0.67677518  1
  F  F15  1  0.95011088  0.12929996  0.17677518  1
  F  F16  1  0.54988912  0.62929996  0.67677518  1
  F  F17  1  0.95011088  0.37070004  0.17677518  1
  F  F18  1  0.45011088  0.12929996  0.32322482  1
  F  F19  1  0.04988912  0.87070004  0.82322482  1
  F  F20  1  0.49762069  0.65844038  0.55963050  1
  F  F21  1  0.00237931  0.34155962  0.05963050  1
  F  F22  1  0.50237931  0.15844038  0.44036950  1
  F  F23  1  0.99762069  0.84155962  0.94036950  1
  F  F24  1  0.50237931  0.34155962  0.44036950  1
  F  F25  1  0.99762069  0.65844038  0.94036950  1
  F  F26  1  0.49762069  0.84155962  0.55963050  1
  F  F27  1  0.00237931  0.15844038  0.05963050  1
  F  F28  1  0.67129467  0.58233623  0.92463040  1
  F  F29  1  0.82870533  0.41766377  0.42463040  1
  F  F30  1  0.32870533  0.08233623  0.07536960  1
  F  F31  1  0.17129467  0.91766377  0.57536960  1
  F  F32  1  0.32870533  0.41766377  0.07536960  1
  F  F33  1  0.17129467  0.58233623  0.57536960  1
  F  F34  1  0.67129467  0.91766377  0.92463040  1
  F  F35  1  0.82870533  0.08233623  0.42463040  1
  F  F36  1  0.32443759  0.35616147  0.00163303  1
  F  F37  1  0.17556241  0.64383853  0.50163303  1
  F  F38  1  0.67556241  0.85616147  0.99836697  1
  F  F39  1  0.82443759  0.14383853  0.49836697  1
  F  F40  1  0.67556241  0.64383853  0.99836697  1
  F  F41  1  0.82443759  0.35616147  0.49836697  1
  F  F42  1  0.32443759  0.14383853  0.00163303  1
  F  F43  1  0.17556241  0.85616147  0.50163303  1
  F  F44  1  0.03771138  0.88243103  0.97578473  1
  F  F45  1  0.46228862  0.11756897  0.47578473  1
  F  F46  1  0.96228862  0.38243103  0.02421527  1
  F  F47  1  0.53771138  0.61756897  0.52421527  1
  F  F48  1  0.96228862  0.11756897  0.02421527  1
  F  F49  1  0.53771138  0.88243103  0.52421527  1
  F  F50  1  0.03771138  0.61756897  0.97578473  1
  F  F51  1  0.46228862  0.38243103  0.47578473  1
  F  F52  1  0.10964360  0.60157169  0.90695960  1
  F  F53  1  0.39035640  0.39842831  0.40695960  1
  F  F54  1  0.89035640  0.10157169  0.09304040  1
  F  F55  1  0.60964360  0.89842831  0.59304040  1
  F  F56  1  0.89035640  0.39842831  0.09304040  1
  F  F57  1  0.60964360  0.60157169  0.59304040  1
  F  F58  1  0.10964360  0.89842831  0.90695960  1
  F  F59  1  0.39035640  0.10157169  0.40695960  1
  Li  Li60  1  0.02628895  0.25000000  0.12942661  1
  Li  Li61  1  0.47371105  0.75000000  0.62942661  1
  Li  Li62  1  0.97371105  0.75000000  0.87057339  1
  Li  Li63  1  0.52628895  0.25000000  0.37057339  1
  Li  Li64  1  0.00000000  0.00000000  0.00000000  1
  Li  Li65  1  0.50000000  -0.00000000  0.50000000  1
  Li  Li66  1  0.00000000  0.50000000  0.00000000  1
  Li  Li67  1  0.50000000  0.50000000  0.50000000  1
  Li  Li68  1  0.11194971  0.25000000  0.50237523  1
  Li  Li69  1  0.38805029  0.75000000  0.00237523  1
  Li  Li70  1  0.88805029  0.75000000  0.49762477  1
  Li  Li71  1  0.61194971  0.25000000  0.99762477  1
  Li  Li72  1  0.93485277  0.20640881  0.23377282  1
  Li  Li73  1  -0.43485277  -0.20640881  0.73377282  1
  Li  Li74  1  -0.93485277  0.70640881  -0.23377282  1
  Li  Li75  1  1.43485277  0.29359119  0.26622718  1
  Li  Li76  1  -0.93485277  -0.20640881  -0.23377282  1
  Li  Li77  1  1.43485277  0.20640881  0.26622718  1
  Li  Li78  1  0.93485277  0.29359119  0.23377282  1
  Li  Li79  1  -0.43485277  0.70640881  0.73377282  1
  Li  Li80  1  0.61317033  0.57031680  0.41834444  1
  Li  Li81  1  0.88682967  0.42968320  0.91834444  1
  Li  Li82  1  0.38682967  0.07031680  0.58165556  1
  Li  Li83  1  0.11317033  0.92968320  0.08165556  1
  Li  Li84  1  0.38682967  0.42968320  0.58165556  1
  Li  Li85  1  0.11317033  0.57031680  0.08165556  1
  Li  Li86  1  0.61317033  0.92968320  0.41834444  1
  Li  Li87  1  0.88682967  0.07031680  0.91834444  1
  Li  Li88  1  0.83123201  0.25000000  0.62465688  1
  Li  Li89  1  0.66876799  0.75000000  0.12465688  1
  Li  Li90  1  0.16876799  0.75000000  0.37534312  1
  Li  Li91  1  0.33123201  0.25000000  0.87534312  1
  Li  Li92  1  0.07259677  0.07234215  0.62673524  1
  Li  Li93  1  0.42740323  0.92765785  0.12673524  1
  Li  Li94  1  0.92740323  0.57234215  0.37326476  1
  Li  Li95  1  0.57259677  0.42765785  0.87326476  1
  Li  Li96  1  0.92740323  0.92765785  0.37326476  1
  Li  Li97  1  0.57259677  0.07234215  0.87326476  1
  Li  Li98  1  0.07259677  0.42765785  0.62673524  1
  Li  Li99  1  0.42740323  0.57234215  0.12673524  1
  Li  Li100  1  0.90094988  0.92516972  0.86553500  1
  Li  Li101  1  0.59905012  0.07483028  0.36553500  1
  Li  Li102  1  0.09905012  0.42516972  0.13446500  1
  Li  Li103  1  0.40094988  0.57483028  0.63446500  1
  Li  Li104  1  0.09905012  0.07483028  0.13446500  1
  Li  Li105  1  0.40094988  0.92516972  0.63446500  1
  Li  Li106  1  0.90094988  0.57483028  0.86553500  1
  Li  Li107  1  0.59905012  0.42516972  0.36553500  1
  Li  Li108  1  0.00000000  0.00000000  0.50000000  1
  Li  Li109  1  0.50000000  -0.00000000  0.00000000  1
  Li  Li110  1  0.00000000  0.50000000  0.50000000  1
  Li  Li111  1  0.50000000  0.50000000  0.00000000  1
  Li  Li112  1  0.26123537  0.99097624  0.00740380  1
  Li  Li113  1  0.23876463  0.00902376  0.50740380  1
  Li  Li114  1  0.73876463  0.49097624  0.99259620  1
  Li  Li115  1  0.76123537  0.50902376  0.49259620  1
  Li  Li116  1  0.73876463  0.00902376  0.99259620  1
  Li  Li117  1  0.76123537  0.99097624  0.49259620  1
  Li  Li118  1  0.26123537  0.50902376  0.00740380  1
  Li  Li119  1  0.23876463  0.49097624  0.50740380  1
