# generated using pymatgen
data_LiF
_symmetry_space_group_name_H-M   'P 1'
_cell_length_a   8.07195877
_cell_length_b   10.83983479
_cell_length_c   7.44528180
_cell_angle_alpha   90.00000000
_cell_angle_beta   90.00000000
_cell_angle_gamma   90.00000000
_symmetry_Int_Tables_number   1
_chemical_formula_structural   LiF
_chemical_formula_sum   'Li24 F24'
_cell_volume   651.45247515
_cell_formula_units_Z   24
loop_
 _symmetry_equiv_pos_site_id
 _symmetry_equiv_pos_as_xyz
  1  'x, y, z'
loop_
 _atom_site_type_symbol
 _atom_site_label
 _atom_site_symmetry_multiplicity
 _atom_site_fract_x
 _atom_site_fract_y
 _atom_site_fract_z
 _atom_site_occupancy
  F  F0  1  0.23737400  0.50139477  0.22850455  1
  F  F1  1  0.26262600  0.49860523  0.72850455  1
  F  F2  1  0.76262600  0.00139477  0.77149545  1
  F  F3  1  0.73737400  0.99860523  0.27149545  1
  F  F4  1  0.76262600  0.49860523  0.77149545  1
  F  F5  1  0.73737400  0.50139477  0.27149545  1
  F  F6  1  0.23737400  0.99860523  0.22850455  1
  F  F7  1  0.26262600  0.00139477  0.72850455  1
  F  F8  1  0.19855363  0.11826214  0.41582193  1
  F  F9  1  0.30144637  0.88173786  0.91582193  1
  F  F10  1  0.80144637  0.61826214  0.58417807  1
  F  F11  1  0.69855363  0.38173786  0.08417807  1
  F  F12  1  0.80144637  0.88173786  0.58417807  1
  F  F13  1  0.69855363  0.11826214  0.08417807  1
  F  F14  1  0.19855363  0.38173786  0.41582193  1
  F  F15  1  0.30144637  0.61826214  0.91582193  1
  F  F16  1  0.70833691  0.25000000  0.99800330  1
  F  F17  1  0.79166309  0.75000000  0.49800330  1
  F  F18  1  0.29166309  0.75000000  0.00199670  1
  F  F19  1  0.20833691  0.25000000  0.50199670  1
  F  F20  1  0.50927182  0.25000000  0.92492583  1
  F  F21  1  0.99072818  0.75000000  0.42492583  1
  F  F22  1  0.49072818  0.75000000  0.07507417  1
  F  F23  1  0.00927182  0.25000000  0.57507417  1
  Li  Li24  1  0.00000000  0.00000000  0.50000000  1
  Li  Li25  1  0.50000000  0.00000000  0.00000000  1
  Li  Li26  1  0.00000000  0.50000000  0.50000000  1
  Li  Li27  1  0.50000000  0.50000000  0.00000000  1
  Li  Li28  1  0.41939620  0.90418597  0.40889390  1
  Li  Li29  1  0.08060380  -0.90418597  0.90889390  1
  Li  Li30  1  -0.41939620  1.40418597  -0.40889390  1
  Li  Li31  1  0.91939620  -0.40418597  0.09110610  1
  Li  Li32  1  -0.41939620  -0.90418597  -0.40889390  1
  Li  Li33  1  0.91939620  0.90418597  0.09110610  1
  Li  Li34  1  0.41939620  -0.40418597  0.40889390  1
  Li  Li35  1  0.08060380  1.40418597  0.90889390  1
  Li  Li36  1  0.24936740  0.85110284  0.33261033  1
  Li  Li37  1  0.25063260  0.14889716  0.83261033  1
  Li  Li38  1  0.75063260  0.35110284  0.66738967  1
  Li  Li39  1  0.74936740  0.64889716  0.16738967  1
  Li  Li40  1  0.75063260  0.14889716  0.66738967  1
  Li  Li41  1  0.74936740  0.85110284  0.16738967  1
  Li  Li42  1  0.24936740  0.64889716  0.33261033  1
  Li  Li43  1  0.25063260  0.35110284  0.83261033  1
  Li  Li44  1  0.00000000  0.00000000  0.00000000  1
  Li  Li45  1  0.50000000  0.00000000  0.50000000  1
  Li  Li46  1  0.00000000  0.50000000  0.00000000  1
  Li  Li47  1  0.50000000  0.50000000  0.50000000  1
