# generated using pymatgen
data_LiY2Cu3P
_symmetry_space_group_name_H-M   'P 1'
_cell_length_a   4.81059121
_cell_length_b   4.86807215
_cell_length_c   6.69954856
_cell_angle_alpha   94.91643066
_cell_angle_beta   100.19785677
_cell_angle_gamma   108.94893329
_symmetry_Int_Tables_number   1
_chemical_formula_structural   LiY2Cu3P
_chemical_formula_sum   'Li1 Y2 Cu3 P1'
_cell_volume   144.30729027
_cell_formula_units_Z   1
loop_
 _symmetry_equiv_pos_site_id
 _symmetry_equiv_pos_as_xyz
  1  'x, y, z'
loop_
 _atom_site_type_symbol
 _atom_site_label
 _atom_site_symmetry_multiplicity
 _atom_site_fract_x
 _atom_site_fract_y
 _atom_site_fract_z
 _atom_site_occupancy
  Y  Y0  1  0.00000000  0.00000000  0.00000000  1
  Y  Y1  1  0.50000000  0.50000000  0.50000000  1
  P  P2  1  0.25000000  0.25000000  0.25000000  1
  Li  Li3  1  0.75000000  0.25000000  0.00000000  1
  Cu  Cu4  1  0.25000000  0.75000000  0.50000000  1
  Cu  Cu5  1  0.27890203  0.37043131  0.48119853  1
  Cu  Cu6  1  0.46738191  0.72344774  0.95846877  1
