# generated using pymatgen
data_LiF
_symmetry_space_group_name_H-M   'P 1'
_cell_length_a   5.04305205
_cell_length_b   9.05506816
_cell_length_c   10.92768841
_cell_angle_alpha   90.00000000
_cell_angle_beta   90.00000000
_cell_angle_gamma   90.00000000
_symmetry_Int_Tables_number   1
_chemical_formula_structural   LiF
_chemical_formula_sum   'Li24 F24'
_cell_volume   499.01485916
_cell_formula_units_Z   24
loop_
 _symmetry_equiv_pos_site_id
 _symmetry_equiv_pos_as_xyz
  1  'x, y, z'
loop_
 _atom_site_type_symbol
 _atom_site_label
 _atom_site_symmetry_multiplicity
 _atom_site_fract_x
 _atom_site_fract_y
 _atom_site_fract_z
 _atom_site_occupancy
  F  F0  1  0.67888455  0.25000000  0.15329838  1
  F  F1  1  0.82111545  0.75000000  0.65329838  1
  F  F2  1  0.32111545  0.75000000  0.84670162  1
  F  F3  1  0.17888455  0.25000000  0.34670162  1
  F  F4  1  0.83089292  0.67927302  0.06391571  1
  F  F5  1  0.66910708  0.32072698  0.56391571  1
  F  F6  1  0.16910708  0.17927302  0.93608429  1
  F  F7  1  0.33089292  0.82072698  0.43608429  1
  F  F8  1  0.16910708  0.32072698  0.93608429  1
  F  F9  1  0.33089292  0.67927302  0.43608429  1
  F  F10  1  0.83089292  0.82072698  0.06391571  1
  F  F11  1  0.66910708  0.17927302  0.56391571  1
  F  F12  1  0.56235376  0.13642955  0.77184920  1
  F  F13  1  0.93764624  0.86357045  0.27184920  1
  F  F14  1  0.43764624  0.63642955  0.22815080  1
  F  F15  1  0.06235376  0.36357045  0.72815080  1
  F  F16  1  0.43764624  0.86357045  0.22815080  1
  F  F17  1  0.06235376  0.13642955  0.72815080  1
  F  F18  1  0.56235376  0.36357045  0.77184920  1
  F  F19  1  0.93764624  0.63642955  0.27184920  1
  F  F20  1  0.09117400  0.25000000  0.13202212  1
  F  F21  1  0.40882600  0.75000000  0.63202212  1
  F  F22  1  0.90882600  0.75000000  0.86797788  1
  F  F23  1  0.59117400  0.25000000  0.36797788  1
  Li  Li24  1  0.00000000  0.00000000  0.50000000  1
  Li  Li25  1  0.50000000  0.00000000  0.00000000  1
  Li  Li26  1  0.00000000  0.50000000  0.50000000  1
  Li  Li27  1  0.50000000  0.50000000  0.00000000  1
  Li  Li28  1  0.00000000  0.00000000  0.00000000  1
  Li  Li29  1  0.50000000  0.00000000  0.50000000  1
  Li  Li30  1  0.00000000  0.50000000  0.00000000  1
  Li  Li31  1  0.50000000  0.50000000  0.50000000  1
  Li  Li32  1  0.70952223  0.50293859  0.29579663  1
  Li  Li33  1  -0.20952223  -0.50293859  0.79579663  1
  Li  Li34  1  -0.70952223  1.00293859  -0.29579663  1
  Li  Li35  1  1.20952223  -0.00293859  0.20420337  1
  Li  Li36  1  -0.70952223  -0.50293859  -0.29579663  1
  Li  Li37  1  1.20952223  0.50293859  0.20420337  1
  Li  Li38  1  0.70952223  -0.00293859  0.29579663  1
  Li  Li39  1  -0.20952223  1.00293859  0.79579663  1
  Li  Li40  1  0.84157891  0.39182241  0.15832718  1
  Li  Li41  1  0.65842109  0.60817759  0.65832718  1
  Li  Li42  1  0.15842109  0.89182241  0.84167282  1
  Li  Li43  1  0.34157891  0.10817759  0.34167282  1
  Li  Li44  1  0.15842109  0.60817759  0.84167282  1
  Li  Li45  1  0.34157891  0.39182241  0.34167282  1
  Li  Li46  1  0.84157891  0.10817759  0.15832718  1
  Li  Li47  1  0.65842109  0.89182241  0.65832718  1
