# generated using pymatgen
data_LiYAs2P
_symmetry_space_group_name_H-M   'P 1'
_cell_length_a   4.58058207
_cell_length_b   4.66781908
_cell_length_c   6.79302586
_cell_angle_alpha   95.45436764
_cell_angle_beta   101.87847878
_cell_angle_gamma   111.90802702
_symmetry_Int_Tables_number   1
_chemical_formula_structural   LiYAs2P
_chemical_formula_sum   'Li2 Y2 As4 P2'
_cell_volume   129.48549911
_cell_formula_units_Z   2
loop_
 _symmetry_equiv_pos_site_id
 _symmetry_equiv_pos_as_xyz
  1  'x, y, z'
loop_
 _atom_site_type_symbol
 _atom_site_label
 _atom_site_symmetry_multiplicity
 _atom_site_fract_x
 _atom_site_fract_y
 _atom_site_fract_z
 _atom_site_occupancy
  P  P0  1  0.00000000  0.00000000  0.00000000  1
  P  P1  1  0.33300000  0.66700000  0.25000000  1
  As  As2  1  0.66700000  0.33300000  0.50000000  1
  As  As3  1  0.00000000  0.00000000  0.75000000  1
  As  As4  1  0.94498303  0.61707631  0.34239444  1
  As  As5  1  0.14560319  0.39160958  0.35537017  1
  Li  Li6  1  0.21707097  0.90060479  0.40181993  1
  Li  Li7  1  0.15602119  0.88242537  0.01322367  1
  Y  Y8  1  0.03912374  0.16357640  0.68398551  1
  Y  Y9  1  0.03634965  0.71427660  0.32282310  1
