# generated using pymatgen
data_LiF
_symmetry_space_group_name_H-M   'P 1'
_cell_length_a   6.94791579
_cell_length_b   5.82127215
_cell_length_c   11.84282299
_cell_angle_alpha   90.00000000
_cell_angle_beta   90.00000000
_cell_angle_gamma   90.00000000
_symmetry_Int_Tables_number   1
_chemical_formula_structural   LiF
_chemical_formula_sum   'Li24 F24'
_cell_volume   478.99136915
_cell_formula_units_Z   24
loop_
 _symmetry_equiv_pos_site_id
 _symmetry_equiv_pos_as_xyz
  1  'x, y, z'
loop_
 _atom_site_type_symbol
 _atom_site_label
 _atom_site_symmetry_multiplicity
 _atom_site_fract_x
 _atom_site_fract_y
 _atom_site_fract_z
 _atom_site_occupancy
  F  F0  1  0.13731752  0.91414219  0.21458305  1
  F  F1  1  0.86268248  0.08585781  0.21458305  1
  F  F2  1  0.36268248  0.41414219  0.78541695  1
  F  F3  1  0.63731752  0.58585781  0.78541695  1
  F  F4  1  0.86268248  0.08585781  0.78541695  1
  F  F5  1  0.13731752  0.91414219  0.78541695  1
  F  F6  1  0.63731752  0.58585781  0.21458305  1
  F  F7  1  0.36268248  0.41414219  0.21458305  1
  F  F8  1  0.94765277  0.82892841  0.24110371  1
  F  F9  1  0.05234723  0.17107159  0.24110371  1
  F  F10  1  0.55234723  0.32892841  0.75889629  1
  F  F11  1  0.44765277  0.67107159  0.75889629  1
  F  F12  1  0.05234723  0.17107159  0.75889629  1
  F  F13  1  0.94765277  0.82892841  0.75889629  1
  F  F14  1  0.44765277  0.67107159  0.24110371  1
  F  F15  1  0.55234723  0.32892841  0.24110371  1
  F  F16  1  0.79263146  0.03423820  0.84175117  1
  F  F17  1  0.20736854  0.96576180  0.84175117  1
  F  F18  1  0.70736854  0.53423820  0.15824883  1
  F  F19  1  0.29263146  0.46576180  0.15824883  1
  F  F20  1  0.20736854  0.96576180  0.15824883  1
  F  F21  1  0.79263146  0.03423820  0.15824883  1
  F  F22  1  0.29263146  0.46576180  0.84175117  1
  F  F23  1  0.70736854  0.53423820  0.84175117  1
  Li  Li24  1  0.29278188  0.55950443  0.50000000  1
  Li  Li25  1  0.70721812  0.44049557  0.50000000  1
  Li  Li26  1  0.20721812  0.05950443  0.50000000  1
  Li  Li27  1  0.79278188  0.94049557  0.50000000  1
  Li  Li28  1  0.00000000  0.00000000  0.50000000  1
  Li  Li29  1  0.50000000  0.50000000  0.50000000  1
  Li  Li30  1  0.24080593  0.79070547  0.34883045  1
  Li  Li31  1  -0.24080593  -0.79070547  0.34883045  1
  Li  Li32  1  0.25919407  1.29070547  -0.34883045  1
  Li  Li33  1  0.74080593  -0.29070547  -0.34883045  1
  Li  Li34  1  -0.24080593  -0.79070547  -0.34883045  1
  Li  Li35  1  0.24080593  0.79070547  -0.34883045  1
  Li  Li36  1  0.74080593  -0.29070547  0.34883045  1
  Li  Li37  1  0.25919407  1.29070547  0.34883045  1
  Li  Li38  1  0.00000000  0.50000000  0.62389591  1
  Li  Li39  1  0.50000000  0.00000000  0.37610409  1
  Li  Li40  1  0.00000000  0.50000000  0.37610409  1
  Li  Li41  1  0.50000000  0.00000000  0.62389591  1
  Li  Li42  1  0.00000000  0.00000000  0.00000000  1
  Li  Li43  1  0.50000000  0.50000000  0.00000000  1
  Li  Li44  1  0.61207565  0.03764306  -0.00000000  1
  Li  Li45  1  0.38792435  0.96235694  0.00000000  1
  Li  Li46  1  0.88792435  0.53764306  -0.00000000  1
  Li  Li47  1  0.11207565  0.46235694  0.00000000  1
