# generated using pymatgen
data_LiF
_symmetry_space_group_name_H-M   'P 1'
_cell_length_a   10.59707959
_cell_length_b   7.33370925
_cell_length_c   15.16286921
_cell_angle_alpha   90.00000000
_cell_angle_beta   90.00000000
_cell_angle_gamma   90.00000000
_symmetry_Int_Tables_number   1
_chemical_formula_structural   LiF
_chemical_formula_sum   'Li40 F40'
_cell_volume   1178.39603701
_cell_formula_units_Z   40
loop_
 _symmetry_equiv_pos_site_id
 _symmetry_equiv_pos_as_xyz
  1  'x, y, z'
loop_
 _atom_site_type_symbol
 _atom_site_label
 _atom_site_symmetry_multiplicity
 _atom_site_fract_x
 _atom_site_fract_y
 _atom_site_fract_z
 _atom_site_occupancy
  F  F0  1  0.40232294  0.25000000  0.11937778  1
  F  F1  1  0.09767706  0.75000000  0.61937778  1
  F  F2  1  0.59767706  0.75000000  0.88062222  1
  F  F3  1  0.90232294  0.25000000  0.38062222  1
  F  F4  1  0.89081728  0.25000000  0.71439126  1
  F  F5  1  0.60918272  0.75000000  0.21439126  1
  F  F6  1  0.10918272  0.75000000  0.28560874  1
  F  F7  1  0.39081728  0.25000000  0.78560874  1
  F  F8  1  0.00000000  0.00000000  0.00000000  1
  F  F9  1  0.50000000  0.00000000  0.50000000  1
  F  F10  1  0.00000000  0.50000000  0.00000000  1
  F  F11  1  0.50000000  0.50000000  0.50000000  1
  F  F12  1  0.80338188  0.02987418  0.80086406  1
  F  F13  1  0.69661812  0.97012582  0.30086406  1
  F  F14  1  0.19661812  0.52987418  0.19913594  1
  F  F15  1  0.30338188  0.47012582  0.69913594  1
  F  F16  1  0.19661812  0.97012582  0.19913594  1
  F  F17  1  0.30338188  0.02987418  0.69913594  1
  F  F18  1  0.80338188  0.47012582  0.80086406  1
  F  F19  1  0.69661812  0.52987418  0.30086406  1
  F  F20  1  0.12209180  0.41760224  0.63169973  1
  F  F21  1  0.37790820  0.58239776  0.13169973  1
  F  F22  1  0.87790820  0.91760224  0.36830027  1
  F  F23  1  0.62209180  0.08239776  0.86830027  1
  F  F24  1  0.87790820  0.58239776  0.36830027  1
  F  F25  1  0.62209180  0.41760224  0.86830027  1
  F  F26  1  0.12209180  0.08239776  0.63169973  1
  F  F27  1  0.37790820  0.91760224  0.13169973  1
  F  F28  1  0.55202877  0.69945364  0.79185277  1
  F  F29  1  0.94797123  0.30054636  0.29185277  1
  F  F30  1  0.44797123  0.19945364  0.20814723  1
  F  F31  1  0.05202877  0.80054636  0.70814723  1
  F  F32  1  0.44797123  0.30054636  0.20814723  1
  F  F33  1  0.05202877  0.69945364  0.70814723  1
  F  F34  1  0.55202877  0.80054636  0.79185277  1
  F  F35  1  0.94797123  0.19945364  0.29185277  1
  F  F36  1  0.00000000  0.00000000  0.50000000  1
  F  F37  1  0.50000000  0.00000000  0.00000000  1
  F  F38  1  0.00000000  0.50000000  0.50000000  1
  F  F39  1  0.50000000  0.50000000  0.00000000  1
  Li  Li40  1  0.83085308  0.02378399  0.42496088  1
  Li  Li41  1  -0.33085308  -0.02378399  0.92496088  1
  Li  Li42  1  -0.83085308  0.52378399  -0.42496088  1
  Li  Li43  1  1.33085308  0.47621601  0.07503912  1
  Li  Li44  1  -0.83085308  -0.02378399  -0.42496088  1
  Li  Li45  1  1.33085308  0.02378399  0.07503912  1
  Li  Li46  1  0.83085308  0.47621601  0.42496088  1
  Li  Li47  1  -0.33085308  0.52378399  0.92496088  1
  Li  Li48  1  0.03841434  0.25000000  0.45715028  1
  Li  Li49  1  0.46158566  0.75000000  0.95715028  1
  Li  Li50  1  0.96158566  0.75000000  0.54284972  1
  Li  Li51  1  0.53841434  0.25000000  0.04284972  1
  Li  Li52  1  0.19922587  0.38994909  0.92869027  1
  Li  Li53  1  0.30077413  0.61005091  0.42869027  1
  Li  Li54  1  0.80077413  0.88994909  0.07130973  1
  Li  Li55  1  0.69922587  0.11005091  0.57130973  1
  Li  Li56  1  0.80077413  0.61005091  0.07130973  1
  Li  Li57  1  0.69922587  0.38994909  0.57130973  1
  Li  Li58  1  0.19922587  0.11005091  0.92869027  1
  Li  Li59  1  0.30077413  0.88994909  0.42869027  1
  Li  Li60  1  0.24055524  0.60128357  0.82934346  1
  Li  Li61  1  0.25944476  0.39871643  0.32934346  1
  Li  Li62  1  0.75944476  0.10128357  0.17065654  1
  Li  Li63  1  0.74055524  0.89871643  0.67065654  1
  Li  Li64  1  0.75944476  0.39871643  0.17065654  1
  Li  Li65  1  0.74055524  0.60128357  0.67065654  1
  Li  Li66  1  0.24055524  0.89871643  0.82934346  1
  Li  Li67  1  0.25944476  0.10128357  0.32934346  1
  Li  Li68  1  0.82707959  0.13935288  0.30719722  1
  Li  Li69  1  0.67292041  0.86064712  0.80719722  1
  Li  Li70  1  0.17292041  0.63935288  0.69280278  1
  Li  Li71  1  0.32707959  0.36064712  0.19280278  1
  Li  Li72  1  0.17292041  0.86064712  0.69280278  1
  Li  Li73  1  0.32707959  0.13935288  0.19280278  1
  Li  Li74  1  0.82707959  0.36064712  0.30719722  1
  Li  Li75  1  0.67292041  0.63935288  0.80719722  1
  Li  Li76  1  0.87926952  0.25000000  0.98034888  1
  Li  Li77  1  0.62073048  0.75000000  0.48034888  1
  Li  Li78  1  0.12073048  0.75000000  0.01965112  1
  Li  Li79  1  0.37926952  0.25000000  0.51965112  1
