# generated using pymatgen
data_Li3Y2(P2Se)2
_symmetry_space_group_name_H-M   'P 1'
_cell_length_a   4.94353922
_cell_length_b   5.26177132
_cell_length_c   7.16942896
_cell_angle_alpha   94.81172618
_cell_angle_beta   100.47893928
_cell_angle_gamma   109.32679169
_symmetry_Int_Tables_number   1
_chemical_formula_structural   Li3Y2(P2Se)2
_chemical_formula_sum   'Li3 Y2 P4 Se2'
_cell_volume   170.94653916
_cell_formula_units_Z   1
loop_
 _symmetry_equiv_pos_site_id
 _symmetry_equiv_pos_as_xyz
  1  'x, y, z'
loop_
 _atom_site_type_symbol
 _atom_site_label
 _atom_site_symmetry_multiplicity
 _atom_site_fract_x
 _atom_site_fract_y
 _atom_site_fract_z
 _atom_site_occupancy
  Se  Se0  1  0.12500000  0.00000000  0.25000000  1
  Se  Se1  1  0.00000000  0.00000000  0.00000000  1
  P  P2  1  0.37500000  0.00000000  0.25000000  1
  P  P3  1  0.25000000  0.25000000  0.25000000  1
  P  P4  1  0.00000000  0.25000000  0.12500000  1
  P  P5  1  0.14796217  0.69367788  0.77910655  1
  Li  Li6  1  0.51999917  0.66223107  0.20452823  1
  Li  Li7  1  0.53194956  0.42081648  0.68968086  1
  Li  Li8  1  0.34847323  0.75180117  0.60853579  1
  Y  Y9  1  0.12667110  0.47480772  0.24922550  1
  Y  Y10  1  0.53772091  0.19778936  0.82315208  1
