# generated using pymatgen
data_LiF
_symmetry_space_group_name_H-M   'P 1'
_cell_length_a   6.62130796
_cell_length_b   10.33259334
_cell_length_c   6.89525633
_cell_angle_alpha   90.00000000
_cell_angle_beta   90.00000000
_cell_angle_gamma   90.00000000
_symmetry_Int_Tables_number   1
_chemical_formula_structural   LiF
_chemical_formula_sum   'Li14 F14'
_cell_volume   471.74090966
_cell_formula_units_Z   14
loop_
 _symmetry_equiv_pos_site_id
 _symmetry_equiv_pos_as_xyz
  1  'x, y, z'
loop_
 _atom_site_type_symbol
 _atom_site_label
 _atom_site_symmetry_multiplicity
 _atom_site_fract_x
 _atom_site_fract_y
 _atom_site_fract_z
 _atom_site_occupancy
  F  F0  1  0.00000000  0.00000000  0.00000000  1
  F  F1  1  0.50000000  0.50000000  0.00000000  1
  F  F2  1  0.04576039  0.84162621  0.09785461  1
  F  F3  1  0.95423961  0.15837379  0.09785461  1
  F  F4  1  0.45423961  0.34162621  0.90214539  1
  F  F5  1  0.54576039  0.65837379  0.90214539  1
  F  F6  1  0.95423961  0.15837379  0.90214539  1
  F  F7  1  0.04576039  0.84162621  0.90214539  1
  F  F8  1  0.54576039  0.65837379  0.09785461  1
  F  F9  1  0.45423961  0.34162621  0.09785461  1
  F  F10  1  0.00000000  0.50000000  0.50000000  1
  F  F11  1  0.50000000  0.00000000  0.50000000  1
  F  F12  1  0.00000000  0.00000000  0.50000000  1
  F  F13  1  0.50000000  0.50000000  0.50000000  1
  Li  Li14  1  0.64701536  0.56453936  -0.00000000  1
  Li  Li15  1  0.35298464  0.43546064  0.00000000  1
  Li  Li16  1  0.85298464  0.06453936  0.00000000  1
  Li  Li17  1  0.14701536  0.93546064  0.00000000  1
  Li  Li18  1  0.80931223  0.72482652  0.86778723  1
  Li  Li19  1  -0.80931223  -0.72482652  0.86778723  1
  Li  Li20  1  -0.30931223  1.22482652  -0.86778723  1
  Li  Li21  1  1.30931223  -0.22482652  -0.86778723  1
  Li  Li22  1  -0.80931223  -0.72482652  -0.86778723  1
  Li  Li23  1  0.80931223  0.72482652  -0.86778723  1
  Li  Li24  1  1.30931223  -0.22482652  0.86778723  1
  Li  Li25  1  -0.30931223  1.22482652  0.86778723  1
  Li  Li26  1  0.00000000  0.50000000  0.00000000  1
  Li  Li27  1  0.50000000  0.00000000  0.00000000  1
