# generated using pymatgen
data_LiF
_symmetry_space_group_name_H-M   'P 1'
_cell_length_a   8.15051755
_cell_length_b   8.15051755
_cell_length_c   9.03618203
_cell_angle_alpha   90.00000000
_cell_angle_beta   90.00000000
_cell_angle_gamma   120.00000000
_symmetry_Int_Tables_number   1
_chemical_formula_structural   LiF
_chemical_formula_sum   'Li18 F18'
_cell_volume   519.85949001
_cell_formula_units_Z   18
loop_
 _symmetry_equiv_pos_site_id
 _symmetry_equiv_pos_as_xyz
  1  'x, y, z'
loop_
 _atom_site_type_symbol
 _atom_site_label
 _atom_site_symmetry_multiplicity
 _atom_site_fract_x
 _atom_site_fract_y
 _atom_site_fract_z
 _atom_site_occupancy
  F  F0  1  0.50000000  0.00000000  -0.00000000  1
  F  F1  1  0.00000000  0.50000000  0.00000000  1
  F  F2  1  0.50000000  0.50000000  0.00000000  1
  F  F3  1  0.50000000  0.00000000  0.50000000  1
  F  F4  1  0.00000000  0.50000000  0.50000000  1
  F  F5  1  0.50000000  0.50000000  0.50000000  1
  F  F6  1  0.00000000  0.00000000  0.00000000  1
  F  F7  1  0.00000000  0.00000000  0.50000000  1
  F  F8  1  0.28847909  0.06563335  0.25000000  1
  F  F9  1  0.93436665  0.22284574  0.25000000  1
  F  F10  1  0.77715426  0.71152091  0.25000000  1
  F  F11  1  0.71152091  0.93436665  0.75000000  1
  F  F12  1  0.06563335  0.77715426  0.75000000  1
  F  F13  1  0.22284574  0.28847909  0.75000000  1
  F  F14  1  0.33333333  0.66666667  0.25000000  1
  F  F15  1  0.66666667  0.33333333  0.75000000  1
  F  F16  1  0.00000000  0.00000000  0.25000000  1
  F  F17  1  0.00000000  0.00000000  0.75000000  1
  Li  Li18  1  0.50874298  0.94221598  0.25000000  1
  Li  Li19  1  0.05778402  0.56652701  0.25000000  1
  Li  Li20  1  0.43347299  0.49125702  0.25000000  1
  Li  Li21  1  0.49125702  0.05778402  0.75000000  1
  Li  Li22  1  0.94221598  0.43347299  0.75000000  1
  Li  Li23  1  0.56652701  0.50874298  0.75000000  1
  Li  Li24  1  0.15857770  0.34070237  0.25000000  1
  Li  Li25  1  0.65929763  0.81787533  0.25000000  1
  Li  Li26  1  0.18212467  0.84142230  0.25000000  1
  Li  Li27  1  0.84142230  0.65929763  0.75000000  1
  Li  Li28  1  0.34070237  0.18212467  0.75000000  1
  Li  Li29  1  0.81787533  0.15857770  0.75000000  1
  Li  Li30  1  0.66666667  0.33333333  0.25000000  1
  Li  Li31  1  0.33333333  0.66666667  0.75000000  1
  Li  Li32  1  0.00000000  0.00000000  0.36089738  1
  Li  Li33  1  0.00000000  0.00000000  0.86089738  1
  Li  Li34  1  0.00000000  0.00000000  0.63910262  1
  Li  Li35  1  0.00000000  0.00000000  0.13910262  1
