# generated using pymatgen
data_Li2YAsP4
_symmetry_space_group_name_H-M   'P 1'
_cell_length_a   4.41965526
_cell_length_b   4.61246611
_cell_length_c   6.99311093
_cell_angle_alpha   96.35413714
_cell_angle_beta   103.47300002
_cell_angle_gamma   113.74831197
_symmetry_Int_Tables_number   1
_chemical_formula_structural   Li2YAsP4
_chemical_formula_sum   'Li2 Y1 As1 P4'
_cell_volume   123.50147507
_cell_formula_units_Z   1
loop_
 _symmetry_equiv_pos_site_id
 _symmetry_equiv_pos_as_xyz
  1  'x, y, z'
loop_
 _atom_site_type_symbol
 _atom_site_label
 _atom_site_symmetry_multiplicity
 _atom_site_fract_x
 _atom_site_fract_y
 _atom_site_fract_z
 _atom_site_occupancy
  Y  Y0  1  0.12500000  0.12500000  0.12500000  1
  P  P1  1  0.50000000  0.50000000  0.50000000  1
  P  P2  1  0.25000000  0.25000000  0.25000000  1
  P  P3  1  0.75000000  0.75000000  0.75000000  1
  P  P4  1  0.63738542  0.22529435  0.47883191  1
  As  As5  1  0.14968620  0.80197113  0.74954015  1
  Li  Li6  1  0.03903551  0.35490806  0.01753193  1
  Li  Li7  1  0.21164626  0.29308134  0.42771308  1
