# generated using pymatgen
data_LiF
_symmetry_space_group_name_H-M   'P 1'
_cell_length_a   13.24793909
_cell_length_b   13.24793909
_cell_length_c   9.38756039
_cell_angle_alpha   90.00000000
_cell_angle_beta   90.00000000
_cell_angle_gamma   90.00000000
_symmetry_Int_Tables_number   1
_chemical_formula_structural   LiF
_chemical_formula_sum   'Li56 F56'
_cell_volume   1647.59091713
_cell_formula_units_Z   56
loop_
 _symmetry_equiv_pos_site_id
 _symmetry_equiv_pos_as_xyz
  1  'x, y, z'
loop_
 _atom_site_type_symbol
 _atom_site_label
 _atom_site_symmetry_multiplicity
 _atom_site_fract_x
 _atom_site_fract_y
 _atom_site_fract_z
 _atom_site_occupancy
  F  F0  1  0.00000000  0.00000000  0.00000000  1
  F  F1  1  0.50000000  0.00000000  0.50000000  1
  F  F2  1  0.25000000  0.75000000  0.25000000  1
  F  F3  1  0.25000000  0.25000000  0.75000000  1
  F  F4  1  0.50000000  0.00000000  0.00000000  1
  F  F5  1  0.00000000  0.00000000  0.50000000  1
  F  F6  1  0.25000000  0.75000000  0.75000000  1
  F  F7  1  0.25000000  0.25000000  0.25000000  1
  F  F8  1  0.50000000  0.50000000  0.50000000  1
  F  F9  1  0.00000000  0.50000000  0.00000000  1
  F  F10  1  0.75000000  0.25000000  0.75000000  1
  F  F11  1  0.75000000  0.75000000  0.25000000  1
  F  F12  1  0.00000000  0.50000000  0.50000000  1
  F  F13  1  0.50000000  0.50000000  0.00000000  1
  F  F14  1  0.75000000  0.25000000  0.25000000  1
  F  F15  1  0.75000000  0.75000000  0.75000000  1
  F  F16  1  0.00092412  0.85905383  0.27772489  1
  F  F17  1  0.49907588  0.14094617  0.77772489  1
  F  F18  1  0.39094617  0.75092412  0.52772489  1
  F  F19  1  0.10905383  0.24907588  0.02772489  1
  F  F20  1  0.49907588  0.85905383  0.72227511  1
  F  F21  1  0.00092412  0.14094617  0.22227511  1
  F  F22  1  0.10905383  0.75092412  0.47227511  1
  F  F23  1  0.39094617  0.24907588  0.97227511  1
  F  F24  1  0.99907588  0.14094617  0.72227511  1
  F  F25  1  0.50092412  0.85905383  0.22227511  1
  F  F26  1  0.60905383  0.24907588  0.47227511  1
  F  F27  1  0.89094617  0.75092412  0.97227511  1
  F  F28  1  0.50092412  0.14094617  0.27772489  1
  F  F29  1  0.99907588  0.85905383  0.77772489  1
  F  F30  1  0.89094617  0.24907588  0.52772489  1
  F  F31  1  0.60905383  0.75092412  0.02772489  1
  F  F32  1  0.50092412  0.35905383  0.77772489  1
  F  F33  1  0.99907588  0.64094617  0.27772489  1
  F  F34  1  0.89094617  0.25092412  0.02772489  1
  F  F35  1  0.60905383  0.74907588  0.52772489  1
  F  F36  1  0.99907588  0.35905383  0.22227511  1
  F  F37  1  0.50092412  0.64094617  0.72227511  1
  F  F38  1  0.60905383  0.25092412  0.97227511  1
  F  F39  1  0.89094617  0.74907588  0.47227511  1
  F  F40  1  0.49907588  0.64094617  0.22227511  1
  F  F41  1  0.00092412  0.35905383  0.72227511  1
  F  F42  1  0.10905383  0.74907588  0.97227511  1
  F  F43  1  0.39094617  0.25092412  0.47227511  1
  F  F44  1  0.00092412  0.64094617  0.77772489  1
  F  F45  1  0.49907588  0.35905383  0.27772489  1
  F  F46  1  0.39094617  0.74907588  0.02772489  1
  F  F47  1  0.10905383  0.25092412  0.52772489  1
  F  F48  1  0.00000000  0.25000000  0.37500000  1
  F  F49  1  0.00000000  0.75000000  0.62500000  1
  F  F50  1  0.50000000  0.25000000  0.62500000  1
  F  F51  1  0.50000000  0.75000000  0.37500000  1
  F  F52  1  0.50000000  0.75000000  0.87500000  1
  F  F53  1  0.50000000  0.25000000  0.12500000  1
  F  F54  1  0.00000000  0.75000000  0.12500000  1
  F  F55  1  0.00000000  0.25000000  0.87500000  1
  Li  Li56  1  0.78514977  0.82944295  0.73377862  1
  Li  Li57  1  -0.28514977  -0.82944295  1.23377862  1
  Li  Li58  1  -0.57944295  1.53514977  0.98377862  1
  Li  Li59  1  1.07944295  -0.53514977  1.48377862  1
  Li  Li60  1  -0.28514977  0.82944295  -0.73377862  1
  Li  Li61  1  0.78514977  -0.82944295  -0.23377862  1
  Li  Li62  1  1.07944295  1.53514977  0.01622138  1
  Li  Li63  1  -0.57944295  -0.53514977  -0.48377862  1
  Li  Li64  1  -0.78514977  -0.82944295  -0.73377862  1
  Li  Li65  1  1.28514977  0.82944295  -0.23377862  1
  Li  Li66  1  1.57944295  -0.53514977  0.01622138  1
  Li  Li67  1  -0.07944295  1.53514977  -0.48377862  1
  Li  Li68  1  1.28514977  -0.82944295  0.73377862  1
  Li  Li69  1  -0.78514977  0.82944295  1.23377862  1
  Li  Li70  1  -0.07944295  -0.53514977  0.98377862  1
  Li  Li71  1  1.57944295  1.53514977  1.48377862  1
  Li  Li72  1  1.28514977  1.32944295  1.23377862  1
  Li  Li73  1  0.21485023  -0.32944295  1.73377862  1
  Li  Li74  1  -0.07944295  2.03514977  1.48377862  1
  Li  Li75  1  1.57944295  -0.03514977  1.98377862  1
  Li  Li76  1  0.21485023  1.32944295  -0.23377862  1
  Li  Li77  1  1.28514977  -0.32944295  0.26622138  1
  Li  Li78  1  1.57944295  2.03514977  0.51622138  1
  Li  Li79  1  -0.07944295  -0.03514977  0.01622138  1
  Li  Li80  1  -0.28514977  -0.32944295  -0.23377862  1
  Li  Li81  1  1.78514977  1.32944295  0.26622138  1
  Li  Li82  1  2.07944295  -0.03514977  0.51622138  1
  Li  Li83  1  0.42055705  2.03514977  0.01622138  1
  Li  Li84  1  1.78514977  -0.32944295  1.23377862  1
  Li  Li85  1  -0.28514977  1.32944295  1.73377862  1
  Li  Li86  1  0.42055705  -0.03514977  1.48377862  1
  Li  Li87  1  2.07944295  2.03514977  1.98377862  1
  Li  Li88  1  0.00000000  0.25000000  0.12500000  1
  Li  Li89  1  0.00000000  0.75000000  0.37500000  1
  Li  Li90  1  0.00000000  0.75000000  0.87500000  1
  Li  Li91  1  0.00000000  0.25000000  0.62500000  1
  Li  Li92  1  0.50000000  0.75000000  0.62500000  1
  Li  Li93  1  0.50000000  0.25000000  0.87500000  1
  Li  Li94  1  0.50000000  0.25000000  0.37500000  1
  Li  Li95  1  0.50000000  0.75000000  0.12500000  1
  Li  Li96  1  0.02943264  0.00000000  0.25000000  1
  Li  Li97  1  0.47056736  0.00000000  0.75000000  1
  Li  Li98  1  0.25000000  0.77943264  0.50000000  1
  Li  Li99  1  0.25000000  0.22056736  0.00000000  1
  Li  Li100  1  0.97056736  0.00000000  0.75000000  1
  Li  Li101  1  0.52943264  0.00000000  0.25000000  1
  Li  Li102  1  0.75000000  0.22056736  0.50000000  1
  Li  Li103  1  0.75000000  0.77943264  0.00000000  1
  Li  Li104  1  0.52943264  0.50000000  0.75000000  1
  Li  Li105  1  0.97056736  0.50000000  0.25000000  1
  Li  Li106  1  0.75000000  0.27943264  0.00000000  1
  Li  Li107  1  0.75000000  0.72056736  0.50000000  1
  Li  Li108  1  0.47056736  0.50000000  0.25000000  1
  Li  Li109  1  0.02943264  0.50000000  0.75000000  1
  Li  Li110  1  0.25000000  0.72056736  0.00000000  1
  Li  Li111  1  0.25000000  0.27943264  0.50000000  1
