# generated using pymatgen
data_LiF
_symmetry_space_group_name_H-M   'P 1'
_cell_length_a   5.78754128
_cell_length_b   22.01022940
_cell_length_c   8.66439262
_cell_angle_alpha   90.00000000
_cell_angle_beta   90.00000000
_cell_angle_gamma   90.00000000
_symmetry_Int_Tables_number   1
_chemical_formula_structural   LiF
_chemical_formula_sum   'Li60 F60'
_cell_volume   1103.71461726
_cell_formula_units_Z   60
loop_
 _symmetry_equiv_pos_site_id
 _symmetry_equiv_pos_as_xyz
  1  'x, y, z'
loop_
 _atom_site_type_symbol
 _atom_site_label
 _atom_site_symmetry_multiplicity
 _atom_site_fract_x
 _atom_site_fract_y
 _atom_site_fract_z
 _atom_site_occupancy
  F  F0  1  0.23149205  0.04900300  0.33673694  1
  F  F1  1  0.26850795  0.95099700  0.83673694  1
  F  F2  1  0.76850795  0.54900300  0.66326306  1
  F  F3  1  0.73149205  0.45099700  0.16326306  1
  F  F4  1  0.76850795  0.95099700  0.66326306  1
  F  F5  1  0.73149205  0.04900300  0.16326306  1
  F  F6  1  0.23149205  0.45099700  0.33673694  1
  F  F7  1  0.26850795  0.54900300  0.83673694  1
  F  F8  1  0.48681041  0.25000000  0.20613346  1
  F  F9  1  0.01318959  0.75000000  0.70613346  1
  F  F10  1  0.51318959  0.75000000  0.79386654  1
  F  F11  1  0.98681041  0.25000000  0.29386654  1
  F  F12  1  0.56001817  0.40223966  0.26725665  1
  F  F13  1  0.93998183  0.59776034  0.76725665  1
  F  F14  1  0.43998183  0.90223966  0.73274335  1
  F  F15  1  0.06001817  0.09776034  0.23274335  1
  F  F16  1  0.43998183  0.59776034  0.73274335  1
  F  F17  1  0.06001817  0.40223966  0.23274335  1
  F  F18  1  0.56001817  0.09776034  0.26725665  1
  F  F19  1  0.93998183  0.90223966  0.76725665  1
  F  F20  1  0.36433440  0.25000000  0.76624165  1
  F  F21  1  0.13566560  0.75000000  0.26624165  1
  F  F22  1  0.63566560  0.75000000  0.23375835  1
  F  F23  1  0.86433440  0.25000000  0.73375835  1
  F  F24  1  0.00000000  0.00000000  0.00000000  1
  F  F25  1  0.50000000  0.00000000  0.50000000  1
  F  F26  1  0.00000000  0.50000000  -0.00000000  1
  F  F27  1  0.50000000  0.50000000  0.50000000  1
  F  F28  1  0.55682005  0.02646628  0.66084254  1
  F  F29  1  0.94317995  0.97353372  0.16084254  1
  F  F30  1  0.44317995  0.52646628  0.33915746  1
  F  F31  1  0.05682005  0.47353372  0.83915746  1
  F  F32  1  0.44317995  0.97353372  0.33915746  1
  F  F33  1  0.05682005  0.02646628  0.83915746  1
  F  F34  1  0.55682005  0.47353372  0.66084254  1
  F  F35  1  0.94317995  0.52646628  0.16084254  1
  F  F36  1  0.13115788  0.05398174  0.74871414  1
  F  F37  1  0.36884212  0.94601826  0.24871414  1
  F  F38  1  0.86884212  0.55398174  0.25128586  1
  F  F39  1  0.63115788  0.44601826  0.75128586  1
  F  F40  1  0.86884212  0.94601826  0.25128586  1
  F  F41  1  0.63115788  0.05398174  0.75128586  1
  F  F42  1  0.13115788  0.44601826  0.74871414  1
  F  F43  1  0.36884212  0.55398174  0.24871414  1
  F  F44  1  0.55217079  0.87556691  0.52846955  1
  F  F45  1  0.94782921  0.12443309  0.02846955  1
  F  F46  1  0.44782921  0.37556691  0.47153045  1
  F  F47  1  0.05217079  0.62443309  0.97153045  1
  F  F48  1  0.44782921  0.12443309  0.47153045  1
  F  F49  1  0.05217079  0.87556691  0.97153045  1
  F  F50  1  0.55217079  0.62443309  0.52846955  1
  F  F51  1  0.94782921  0.37556691  0.02846955  1
  F  F52  1  0.50090614  0.83666663  0.17318208  1
  F  F53  1  0.99909386  0.16333337  0.67318208  1
  F  F54  1  0.49909386  0.33666663  0.82681792  1
  F  F55  1  0.00090614  0.66333337  0.32681792  1
  F  F56  1  0.49909386  0.16333337  0.82681792  1
  F  F57  1  0.00090614  0.83666663  0.32681792  1
  F  F58  1  0.50090614  0.66333337  0.17318208  1
  F  F59  1  0.99909386  0.33666663  0.67318208  1
  Li  Li60  1  0.92686355  0.51686111  0.43345521  1
  Li  Li61  1  -0.42686355  -0.51686111  0.93345521  1
  Li  Li62  1  -0.92686355  1.01686111  -0.43345521  1
  Li  Li63  1  1.42686355  -0.01686111  0.06654479  1
  Li  Li64  1  -0.92686355  -0.51686111  -0.43345521  1
  Li  Li65  1  1.42686355  0.51686111  0.06654479  1
  Li  Li66  1  0.92686355  -0.01686111  0.43345521  1
  Li  Li67  1  -0.42686355  1.01686111  0.93345521  1
  Li  Li68  1  0.61057556  0.54455566  0.54024838  1
  Li  Li69  1  0.88942444  0.45544434  0.04024838  1
  Li  Li70  1  0.38942444  0.04455566  0.45975162  1
  Li  Li71  1  0.11057556  0.95544434  0.95975162  1
  Li  Li72  1  0.38942444  0.45544434  0.45975162  1
  Li  Li73  1  0.11057556  0.54455566  0.95975162  1
  Li  Li74  1  0.61057556  0.95544434  0.54024838  1
  Li  Li75  1  0.88942444  0.04455566  0.04024838  1
  Li  Li76  1  0.35828393  0.64893777  0.26068768  1
  Li  Li77  1  0.14171607  0.35106223  0.76068768  1
  Li  Li78  1  0.64171607  0.14893777  0.73931232  1
  Li  Li79  1  0.85828393  0.85106223  0.23931232  1
  Li  Li80  1  0.64171607  0.35106223  0.73931232  1
  Li  Li81  1  0.85828393  0.64893777  0.23931232  1
  Li  Li82  1  0.35828393  0.85106223  0.26068768  1
  Li  Li83  1  0.14171607  0.14893777  0.76068768  1
  Li  Li84  1  0.53784459  0.93603567  0.16973115  1
  Li  Li85  1  0.96215541  0.06396433  0.66973115  1
  Li  Li86  1  0.46215541  0.43603567  0.83026885  1
  Li  Li87  1  0.03784459  0.56396433  0.33026885  1
  Li  Li88  1  0.46215541  0.06396433  0.83026885  1
  Li  Li89  1  0.03784459  0.93603567  0.33026885  1
  Li  Li90  1  0.53784459  0.56396433  0.16973115  1
  Li  Li91  1  0.96215541  0.43603567  0.66973115  1
  Li  Li92  1  0.94940734  0.25000000  0.50711436  1
  Li  Li93  1  0.55059266  0.75000000  0.00711436  1
  Li  Li94  1  0.05059266  0.75000000  0.49288564  1
  Li  Li95  1  0.44940734  0.25000000  0.99288564  1
  Li  Li96  1  0.12379615  0.68233215  0.79085868  1
  Li  Li97  1  0.37620385  0.31766785  0.29085868  1
  Li  Li98  1  0.87620385  0.18233215  0.20914132  1
  Li  Li99  1  0.62379615  0.81766785  0.70914132  1
  Li  Li100  1  0.87620385  0.31766785  0.20914132  1
  Li  Li101  1  0.62379615  0.68233215  0.70914132  1
  Li  Li102  1  0.12379615  0.81766785  0.79085868  1
  Li  Li103  1  0.37620385  0.18233215  0.29085868  1
  Li  Li104  1  0.83021558  0.25000000  0.22381736  1
  Li  Li105  1  0.66978442  0.75000000  0.72381736  1
  Li  Li106  1  0.16978442  0.75000000  0.77618264  1
  Li  Li107  1  0.33021558  0.25000000  0.27618264  1
  Li  Li108  1  0.03808406  0.79722505  0.58526804  1
  Li  Li109  1  0.46191594  0.20277495  0.08526804  1
  Li  Li110  1  0.96191594  0.29722505  0.41473196  1
  Li  Li111  1  0.53808406  0.70277495  0.91473196  1
  Li  Li112  1  0.96191594  0.20277495  0.41473196  1
  Li  Li113  1  0.53808406  0.79722505  0.91473196  1
  Li  Li114  1  0.03808406  0.70277495  0.58526804  1
  Li  Li115  1  0.46191594  0.29722505  0.08526804  1
  Li  Li116  1  0.24425757  0.25000000  0.48106782  1
  Li  Li117  1  0.25574243  0.75000000  0.98106782  1
  Li  Li118  1  0.75574243  0.75000000  0.51893218  1
  Li  Li119  1  0.74425757  0.25000000  0.01893218  1
