# generated using pymatgen
data_LiCaF3
_symmetry_space_group_name_H-M   'P 1'
_cell_length_a   14.51390349
_cell_length_b   6.05796818
_cell_length_c   15.06922563
_cell_angle_alpha   90.00000000
_cell_angle_beta   90.00000000
_cell_angle_gamma   90.00000000
_symmetry_Int_Tables_number   1
_chemical_formula_structural   LiCaF3
_chemical_formula_sum   'Li18 Ca18 F54'
_cell_volume   1324.95813113
_cell_formula_units_Z   18
loop_
 _symmetry_equiv_pos_site_id
 _symmetry_equiv_pos_as_xyz
  1  'x, y, z'
loop_
 _atom_site_type_symbol
 _atom_site_label
 _atom_site_symmetry_multiplicity
 _atom_site_fract_x
 _atom_site_fract_y
 _atom_site_fract_z
 _atom_site_occupancy
  Ca  Ca0  1  0.00000000  0.00000000  0.20915771  1
  Ca  Ca1  1  0.50000000  0.50000000  0.29084229  1
  Ca  Ca2  1  0.00000000  0.00000000  0.79084229  1
  Ca  Ca3  1  0.50000000  0.50000000  0.70915771  1
  Ca  Ca4  1  0.00000000  0.50000000  0.82473753  1
  Ca  Ca5  1  0.50000000  -0.00000000  0.67526247  1
  Ca  Ca6  1  0.00000000  0.50000000  0.17526247  1
  Ca  Ca7  1  0.50000000  -0.00000000  0.32473753  1
  Ca  Ca8  1  0.15370099  0.91910710  0.56377631  1
  Ca  Ca9  1  -0.15370099  -0.91910710  0.56377631  1
  Ca  Ca10  1  0.34629901  1.41910710  -0.06377631  1
  Ca  Ca11  1  0.65370099  -0.41910710  -0.06377631  1
  Ca  Ca12  1  -0.15370099  -0.91910710  -0.56377631  1
  Ca  Ca13  1  0.15370099  0.91910710  -0.56377631  1
  Ca  Ca14  1  0.65370099  -0.41910710  1.06377631  1
  Ca  Ca15  1  0.34629901  1.41910710  1.06377631  1
  Ca  Ca16  1  0.00000000  0.50000000  0.00000000  1
  Ca  Ca17  1  0.50000000  -0.00000000  0.50000000  1
  F  F18  1  0.29771377  0.33486289  0.60490973  1
  F  F19  1  0.70228623  0.66513711  0.60490973  1
  F  F20  1  0.20228623  0.83486289  0.89509027  1
  F  F21  1  0.79771377  0.16513711  0.89509027  1
  F  F22  1  0.70228623  0.66513711  0.39509027  1
  F  F23  1  0.29771377  0.33486289  0.39509027  1
  F  F24  1  0.79771377  0.16513711  0.10490973  1
  F  F25  1  0.20228623  0.83486289  0.10490973  1
  F  F26  1  0.12830612  0.00008826  0.31933560  1
  F  F27  1  0.87169388  0.99991174  0.31933560  1
  F  F28  1  0.37169388  0.50008826  0.18066440  1
  F  F29  1  0.62830612  0.49991174  0.18066440  1
  F  F30  1  0.87169388  0.99991174  0.68066440  1
  F  F31  1  0.12830612  0.00008826  0.68066440  1
  F  F32  1  0.62830612  0.49991174  0.81933560  1
  F  F33  1  0.37169388  0.50008826  0.81933560  1
  F  F34  1  0.73648226  0.03224178  0.35661045  1
  F  F35  1  0.26351774  0.96775822  0.35661045  1
  F  F36  1  0.76351774  0.53224178  0.14338955  1
  F  F37  1  0.23648226  0.46775822  0.14338955  1
  F  F38  1  0.26351774  0.96775822  0.64338955  1
  F  F39  1  0.73648226  0.03224178  0.64338955  1
  F  F40  1  0.23648226  0.46775822  0.85661045  1
  F  F41  1  0.76351774  0.53224178  0.85661045  1
  F  F42  1  0.70778959  0.16817259  0.71633412  1
  F  F43  1  0.29221041  0.83182741  0.71633412  1
  F  F44  1  0.79221041  0.66817259  0.78366588  1
  F  F45  1  0.20778959  0.33182741  0.78366588  1
  F  F46  1  0.29221041  0.83182741  0.28366588  1
  F  F47  1  0.70778959  0.16817259  0.28366588  1
  F  F48  1  0.20778959  0.33182741  0.21633412  1
  F  F49  1  0.79221041  0.66817259  0.21633412  1
  F  F50  1  0.00000000  0.50000000  0.58044353  1
  F  F51  1  0.50000000  -0.00000000  0.91955647  1
  F  F52  1  0.00000000  0.50000000  0.41955647  1
  F  F53  1  0.50000000  -0.00000000  0.08044353  1
  F  F54  1  0.16154180  0.80190043  0.36408227  1
  F  F55  1  0.83845820  0.19809957  0.36408227  1
  F  F56  1  0.33845820  0.30190043  0.13591773  1
  F  F57  1  0.66154180  0.69809957  0.13591773  1
  F  F58  1  0.83845820  0.19809957  0.63591773  1
  F  F59  1  0.16154180  0.80190043  0.63591773  1
  F  F60  1  0.66154180  0.69809957  0.86408227  1
  F  F61  1  0.33845820  0.30190043  0.86408227  1
  F  F62  1  0.35635326  0.52510161  0.34245803  1
  F  F63  1  0.64364674  0.47489839  0.34245803  1
  F  F64  1  0.14364674  0.02510161  0.15754197  1
  F  F65  1  0.85635326  0.97489839  0.15754197  1
  F  F66  1  0.64364674  0.47489839  0.65754197  1
  F  F67  1  0.35635326  0.52510161  0.65754197  1
  F  F68  1  0.85635326  0.97489839  0.84245803  1
  F  F69  1  0.14364674  0.02510161  0.84245803  1
  F  F70  1  0.00000000  0.00000000  0.50000000  1
  F  F71  1  0.50000000  0.50000000  -0.00000000  1
  Li  Li72  1  0.29924881  0.19564914  -0.00000000  1
  Li  Li73  1  0.70075119  0.80435086  -0.00000000  1
  Li  Li74  1  0.20075119  0.69564914  0.50000000  1
  Li  Li75  1  0.79924881  0.30435086  0.50000000  1
  Li  Li76  1  0.72231127  0.50464486  0.23635901  1
  Li  Li77  1  0.27768873  0.49535514  0.23635901  1
  Li  Li78  1  0.77768873  0.00464486  0.26364099  1
  Li  Li79  1  0.22231127  0.99535514  0.26364099  1
  Li  Li80  1  0.27768873  0.49535514  0.76364099  1
  Li  Li81  1  0.72231127  0.50464486  0.76364099  1
  Li  Li82  1  0.22231127  0.99535514  0.73635901  1
  Li  Li83  1  0.77768873  0.00464486  0.73635901  1
  Li  Li84  1  0.93311485  0.18126161  -0.00000000  1
  Li  Li85  1  0.06688515  0.81873839  -0.00000000  1
  Li  Li86  1  0.56688515  0.68126161  0.50000000  1
  Li  Li87  1  0.43311485  0.31873839  0.50000000  1
  Li  Li88  1  0.00000000  0.00000000  0.00000000  1
  Li  Li89  1  0.50000000  0.50000000  0.50000000  1
