# generated using pymatgen
data_Li2Y2Cu3(PSe)2
_symmetry_space_group_name_H-M   'P 1'
_cell_length_a   5.00608182
_cell_length_b   5.22043629
_cell_length_c   6.91427475
_cell_angle_alpha   94.55235171
_cell_angle_beta   99.32537981
_cell_angle_gamma   107.36175672
_symmetry_Int_Tables_number   1
_chemical_formula_structural   Li2Y2Cu3(PSe)2
_chemical_formula_sum   'Li2 Y2 Cu3 P2 Se2'
_cell_volume   168.61309542
_cell_formula_units_Z   1
loop_
 _symmetry_equiv_pos_site_id
 _symmetry_equiv_pos_as_xyz
  1  'x, y, z'
loop_
 _atom_site_type_symbol
 _atom_site_label
 _atom_site_symmetry_multiplicity
 _atom_site_fract_x
 _atom_site_fract_y
 _atom_site_fract_z
 _atom_site_occupancy
  Y  Y0  1  0.00000000  0.00000000  0.00000000  1
  Y  Y1  1  0.50000000  0.50000000  0.50000000  1
  P  P2  1  0.50000000  0.50000000  0.00000000  1
  P  P3  1  0.50000000  0.00000000  0.50000000  1
  Se  Se4  1  0.00000000  0.50000000  0.50000000  1
  Se  Se5  1  0.84009168  0.66824323  0.60731526  1
  Li  Li6  1  0.29735871  0.28989518  0.39996894  1
  Li  Li7  1  0.28661717  0.83787644  0.13208051  1
  Cu  Cu8  1  0.71182812  0.76342746  0.24024441  1
  Cu  Cu9  1  0.85175731  0.97052315  0.97966449  1
  Cu  Cu10  1  0.85472119  0.84299394  0.33062941  1
