# generated using pymatgen
data_LiF
_symmetry_space_group_name_H-M   'P 1'
_cell_length_a   8.91994335
_cell_length_b   6.36466038
_cell_length_c   12.40184801
_cell_angle_alpha   90.00000000
_cell_angle_beta   90.00000000
_cell_angle_gamma   90.00000000
_symmetry_Int_Tables_number   1
_chemical_formula_structural   LiF
_chemical_formula_sum   'Li22 F22'
_cell_volume   704.08280063
_cell_formula_units_Z   22
loop_
 _symmetry_equiv_pos_site_id
 _symmetry_equiv_pos_as_xyz
  1  'x, y, z'
loop_
 _atom_site_type_symbol
 _atom_site_label
 _atom_site_symmetry_multiplicity
 _atom_site_fract_x
 _atom_site_fract_y
 _atom_site_fract_z
 _atom_site_occupancy
  F  F0  1  0.83202155  0.28454734  0.23042811  1
  F  F1  1  -0.83202155  -0.28454734  0.23042811  1
  F  F2  1  -0.33202155  0.78454734  0.26957189  1
  F  F3  1  1.33202155  0.21545266  0.26957189  1
  F  F4  1  -0.83202155  -0.28454734  -0.23042811  1
  F  F5  1  0.83202155  0.28454734  -0.23042811  1
  F  F6  1  1.33202155  0.21545266  0.73042811  1
  F  F7  1  -0.33202155  0.78454734  0.73042811  1
  F  F8  1  0.26039360  0.74240800  0.00000000  1
  F  F9  1  0.73960640  0.25759200  -0.00000000  1
  F  F10  1  0.23960640  0.24240800  0.50000000  1
  F  F11  1  0.76039360  0.75759200  0.50000000  1
  F  F12  1  0.15175281  0.41939158  0.00000000  1
  F  F13  1  0.84824719  0.58060842  0.00000000  1
  F  F14  1  0.34824719  0.91939158  0.50000000  1
  F  F15  1  0.65175281  0.08060842  0.50000000  1
  F  F16  1  0.00000000  0.00000000  0.34135788  1
  F  F17  1  0.50000000  0.50000000  0.15864212  1
  F  F18  1  0.00000000  0.00000000  0.65864212  1
  F  F19  1  0.50000000  0.50000000  0.84135788  1
  F  F20  1  0.00000000  0.00000000  0.50000000  1
  F  F21  1  0.50000000  0.50000000  -0.00000000  1
  Li  Li22  1  0.00000000  0.00000000  0.24781723  1
  Li  Li23  1  0.50000000  0.50000000  0.25218277  1
  Li  Li24  1  0.00000000  0.00000000  0.75218277  1
  Li  Li25  1  0.50000000  0.50000000  0.74781723  1
  Li  Li26  1  0.00000000  0.50000000  0.00000000  1
  Li  Li27  1  0.50000000  -0.00000000  0.50000000  1
  Li  Li28  1  0.54990755  0.88535112  0.00000000  1
  Li  Li29  1  0.45009245  0.11464888  -0.00000000  1
  Li  Li30  1  0.95009245  0.38535112  0.50000000  1
  Li  Li31  1  0.04990755  0.61464888  0.50000000  1
  Li  Li32  1  0.75809396  0.20959175  0.19470207  1
  Li  Li33  1  0.24190604  0.79040825  0.19470207  1
  Li  Li34  1  0.74190604  0.70959175  0.30529793  1
  Li  Li35  1  0.25809396  0.29040825  0.30529793  1
  Li  Li36  1  0.24190604  0.79040825  0.80529793  1
  Li  Li37  1  0.75809396  0.20959175  0.80529793  1
  Li  Li38  1  0.25809396  0.29040825  0.69470207  1
  Li  Li39  1  0.74190604  0.70959175  0.69470207  1
  Li  Li40  1  0.41396304  0.60838804  0.00000000  1
  Li  Li41  1  0.58603696  0.39161196  -0.00000000  1
  Li  Li42  1  0.08603696  0.10838804  0.50000000  1
  Li  Li43  1  0.91396304  0.89161196  0.50000000  1
