# generated using pymatgen
data_LiF
_symmetry_space_group_name_H-M   'P 1'
_cell_length_a   7.03833051
_cell_length_b   7.03833051
_cell_length_c   16.95967677
_cell_angle_alpha   90.00000000
_cell_angle_beta   90.00000000
_cell_angle_gamma   120.00000000
_symmetry_Int_Tables_number   1
_chemical_formula_structural   LiF
_chemical_formula_sum   'Li26 F26'
_cell_volume   727.59133049
_cell_formula_units_Z   26
loop_
 _symmetry_equiv_pos_site_id
 _symmetry_equiv_pos_as_xyz
  1  'x, y, z'
loop_
 _atom_site_type_symbol
 _atom_site_label
 _atom_site_symmetry_multiplicity
 _atom_site_fract_x
 _atom_site_fract_y
 _atom_site_fract_z
 _atom_site_occupancy
  F  F0  1  0.00000000  0.00000000  0.22745239  1
  F  F1  1  0.00000000  0.00000000  0.77254761  1
  F  F2  1  0.28486867  0.10630483  0.03354285  1
  F  F3  1  0.89369517  0.17856384  0.03354285  1
  F  F4  1  0.82143616  0.71513133  0.03354285  1
  F  F5  1  0.89369517  0.71513133  0.96645715  1
  F  F6  1  0.82143616  0.10630483  0.96645715  1
  F  F7  1  0.28486867  0.17856384  0.96645715  1
  F  F8  1  0.47613394  0.68584615  0.18930483  1
  F  F9  1  0.31415385  0.79028779  0.18930483  1
  F  F10  1  0.20971221  0.52386606  0.18930483  1
  F  F11  1  0.31415385  0.52386606  0.81069517  1
  F  F12  1  0.20971221  0.68584615  0.81069517  1
  F  F13  1  0.47613394  0.79028779  0.81069517  1
  F  F14  1  0.83014932  0.72654157  0.82676374  1
  F  F15  1  0.27345843  0.10360775  0.82676374  1
  F  F16  1  0.89639225  0.16985068  0.82676374  1
  F  F17  1  0.27345843  0.16985068  0.17323626  1
  F  F18  1  0.89639225  0.72654157  0.17323626  1
  F  F19  1  0.83014932  0.10360775  0.17323626  1
  F  F20  1  0.96466218  0.50639603  0.90210753  1
  F  F21  1  0.49360397  0.45826615  0.90210753  1
  F  F22  1  0.54173385  0.03533782  0.90210753  1
  F  F23  1  0.49360397  0.03533782  0.09789247  1
  F  F24  1  0.54173385  0.50639603  0.09789247  1
  F  F25  1  0.96466218  0.45826615  0.09789247  1
  Li  Li26  1  0.33333333  0.66666667  0.00000000  1
  Li  Li27  1  0.00000000  0.00000000  0.50000000  1
  Li  Li28  1  0.47637857  0.52362143  0.00000000  1
  Li  Li29  1  0.47637857  0.95275714  0.00000000  1
  Li  Li30  1  0.04724286  0.52362143  -0.00000000  1
  Li  Li31  1  0.86605708  0.13394292  0.50000000  1
  Li  Li32  1  0.86605708  0.73211416  0.50000000  1
  Li  Li33  1  0.26788584  0.13394292  0.50000000  1
  Li  Li34  1  0.74456820  0.26658121  0.75846804  1
  Li  Li35  1  -0.26658121  0.47798699  0.75846804  1
  Li  Li36  1  -0.47798699  -0.74456820  0.75846804  1
  Li  Li37  1  -0.26658121  -0.74456820  -0.75846804  1
  Li  Li38  1  -0.47798699  0.26658121  -0.75846804  1
  Li  Li39  1  0.74456820  0.47798699  -0.75846804  1
  Li  Li40  1  0.70172940  0.48236318  0.45675286  1
  Li  Li41  1  0.51763682  0.21936623  0.45675286  1
  Li  Li42  1  0.78063377  0.29827060  0.45675286  1
  Li  Li43  1  0.51763682  0.29827060  0.54324714  1
  Li  Li44  1  0.78063377  0.48236318  0.54324714  1
  Li  Li45  1  0.70172940  0.21936623  0.54324714  1
  Li  Li46  1  0.89858069  0.40789823  0.69947920  1
  Li  Li47  1  0.59210177  0.49068246  0.69947920  1
  Li  Li48  1  0.50931754  0.10141931  0.69947920  1
  Li  Li49  1  0.59210177  0.10141931  0.30052080  1
  Li  Li50  1  0.50931754  0.40789823  0.30052080  1
  Li  Li51  1  0.89858069  0.49068246  0.30052080  1
