# generated using pymatgen
data_LiF
_symmetry_space_group_name_H-M   'P 1'
_cell_length_a   9.88375267
_cell_length_b   9.98486616
_cell_length_c   10.74622462
_cell_angle_alpha   90.00000000
_cell_angle_beta   90.00000000
_cell_angle_gamma   90.00000000
_symmetry_Int_Tables_number   1
_chemical_formula_structural   LiF
_chemical_formula_sum   'Li56 F56'
_cell_volume   1060.52285115
_cell_formula_units_Z   56
loop_
 _symmetry_equiv_pos_site_id
 _symmetry_equiv_pos_as_xyz
  1  'x, y, z'
loop_
 _atom_site_type_symbol
 _atom_site_label
 _atom_site_symmetry_multiplicity
 _atom_site_fract_x
 _atom_site_fract_y
 _atom_site_fract_z
 _atom_site_occupancy
  F  F0  1  0.12722768  0.67635639  0.69024802  1
  F  F1  1  0.37277232  0.32364361  0.19024802  1
  F  F2  1  0.87277232  0.17635639  0.30975198  1
  F  F3  1  0.62722768  0.82364361  0.80975198  1
  F  F4  1  0.87277232  0.32364361  0.30975198  1
  F  F5  1  0.62722768  0.67635639  0.80975198  1
  F  F6  1  0.12722768  0.82364361  0.69024802  1
  F  F7  1  0.37277232  0.17635639  0.19024802  1
  F  F8  1  0.64674041  0.25000000  0.84128524  1
  F  F9  1  0.85325959  0.75000000  0.34128524  1
  F  F10  1  0.35325959  0.75000000  0.15871476  1
  F  F11  1  0.14674041  0.25000000  0.65871476  1
  F  F12  1  0.48960361  0.25000000  0.34092245  1
  F  F13  1  0.01039639  0.75000000  0.84092245  1
  F  F14  1  0.51039639  0.75000000  0.65907755  1
  F  F15  1  0.98960361  0.25000000  0.15907755  1
  F  F16  1  0.21114125  0.25000000  0.39668725  1
  F  F17  1  0.28885875  0.75000000  0.89668725  1
  F  F18  1  0.78885875  0.75000000  0.60331275  1
  F  F19  1  0.71114125  0.25000000  0.10331275  1
  F  F20  1  0.92151142  0.25000000  0.71480674  1
  F  F21  1  0.57848858  0.75000000  0.21480674  1
  F  F22  1  0.07848858  0.75000000  0.28519326  1
  F  F23  1  0.42151142  0.25000000  0.78519326  1
  F  F24  1  0.21153294  0.25000000  0.82188203  1
  F  F25  1  0.28846706  0.75000000  0.32188203  1
  F  F26  1  0.78846706  0.75000000  0.17811797  1
  F  F27  1  0.71153294  0.25000000  0.67811797  1
  F  F28  1  0.30229015  0.90796813  0.40250080  1
  F  F29  1  0.19770985  0.09203187  0.90250080  1
  F  F30  1  0.69770985  0.40796813  0.59749920  1
  F  F31  1  0.80229015  0.59203187  0.09749920  1
  F  F32  1  0.69770985  0.09203187  0.59749920  1
  F  F33  1  0.80229015  0.90796813  0.09749920  1
  F  F34  1  0.30229015  0.59203187  0.40250080  1
  F  F35  1  0.19770985  0.40796813  0.90250080  1
  F  F36  1  0.25242947  0.25000000  0.53247669  1
  F  F37  1  0.24757053  0.75000000  0.03247669  1
  F  F38  1  0.74757053  0.75000000  0.46752331  1
  F  F39  1  0.75242947  0.25000000  0.96752331  1
  F  F40  1  0.42978268  0.39947348  0.07624427  1
  F  F41  1  0.07021732  0.60052652  0.57624427  1
  F  F42  1  0.57021732  0.89947348  0.92375573  1
  F  F43  1  0.92978268  0.10052652  0.42375573  1
  F  F44  1  0.57021732  0.60052652  0.92375573  1
  F  F45  1  0.92978268  0.39947348  0.42375573  1
  F  F46  1  0.42978268  0.10052652  0.07624427  1
  F  F47  1  0.07021732  0.89947348  0.57624427  1
  F  F48  1  0.57783015  0.19533403  0.80950097  1
  F  F49  1  0.92216985  0.80466597  0.30950097  1
  F  F50  1  0.42216985  0.69533403  0.19049903  1
  F  F51  1  0.07783015  0.30466597  0.69049903  1
  F  F52  1  0.42216985  0.80466597  0.19049903  1
  F  F53  1  0.07783015  0.19533403  0.69049903  1
  F  F54  1  0.57783015  0.30466597  0.80950097  1
  F  F55  1  0.92216985  0.69533403  0.30950097  1
  Li  Li56  1  0.32192489  0.99616168  0.29514585  1
  Li  Li57  1  0.17807511  -0.99616168  0.79514585  1
  Li  Li58  1  -0.32192489  1.49616168  -0.29514585  1
  Li  Li59  1  0.82192489  -0.49616168  0.20485415  1
  Li  Li60  1  -0.32192489  -0.99616168  -0.29514585  1
  Li  Li61  1  0.82192489  0.99616168  0.20485415  1
  Li  Li62  1  0.32192489  -0.49616168  0.29514585  1
  Li  Li63  1  0.17807511  1.49616168  0.79514585  1
  Li  Li64  1  0.25988608  0.01363630  0.96506476  1
  Li  Li65  1  0.24011392  0.98636370  0.46506476  1
  Li  Li66  1  0.74011392  0.51363630  0.03493524  1
  Li  Li67  1  0.75988608  0.48636370  0.53493524  1
  Li  Li68  1  0.74011392  0.98636370  0.03493524  1
  Li  Li69  1  0.75988608  0.01363630  0.53493524  1
  Li  Li70  1  0.25988608  0.48636370  0.96506476  1
  Li  Li71  1  0.24011392  0.51363630  0.46506476  1
  Li  Li72  1  0.25220603  0.41494522  0.14090617  1
  Li  Li73  1  0.24779397  0.58505478  0.64090617  1
  Li  Li74  1  0.74779397  0.91494522  0.85909383  1
  Li  Li75  1  0.75220603  0.08505478  0.35909383  1
  Li  Li76  1  0.74779397  0.58505478  0.85909383  1
  Li  Li77  1  0.75220603  0.41494522  0.35909383  1
  Li  Li78  1  0.25220603  0.08505478  0.14090617  1
  Li  Li79  1  0.24779397  0.91494522  0.64090617  1
  Li  Li80  1  0.88260699  0.25000000  0.51447221  1
  Li  Li81  1  0.61739301  0.75000000  0.01447221  1
  Li  Li82  1  0.11739301  0.75000000  0.48552779  1
  Li  Li83  1  0.38260699  0.25000000  0.98552779  1
  Li  Li84  1  0.73123979  0.39799372  0.20014571  1
  Li  Li85  1  0.76876021  0.60200628  0.70014571  1
  Li  Li86  1  0.26876021  0.89799372  0.79985429  1
  Li  Li87  1  0.23123979  0.10200628  0.29985429  1
  Li  Li88  1  0.26876021  0.60200628  0.79985429  1
  Li  Li89  1  0.23123979  0.39799372  0.29985429  1
  Li  Li90  1  0.73123979  0.10200628  0.20014571  1
  Li  Li91  1  0.76876021  0.89799372  0.70014571  1
  Li  Li92  1  0.11400317  0.25000000  0.52597428  1
  Li  Li93  1  0.38599683  0.75000000  0.02597428  1
  Li  Li94  1  0.88599683  0.75000000  0.47402572  1
  Li  Li95  1  0.61400317  0.25000000  0.97402572  1
  Li  Li96  1  0.49371636  0.00516487  0.35033963  1
  Li  Li97  1  0.00628364  0.99483513  0.85033963  1
  Li  Li98  1  0.50628364  0.50516487  0.64966037  1
  Li  Li99  1  0.99371636  0.49483513  0.14966037  1
  Li  Li100  1  0.50628364  0.99483513  0.64966037  1
  Li  Li101  1  0.99371636  0.00516487  0.14966037  1
  Li  Li102  1  0.49371636  0.49483513  0.35033963  1
  Li  Li103  1  0.00628364  0.50516487  0.85033963  1
  Li  Li104  1  0.43899773  0.02256382  0.52533724  1
  Li  Li105  1  0.06100227  0.97743618  0.02533724  1
  Li  Li106  1  0.56100227  0.52256382  0.47466276  1
  Li  Li107  1  0.93899773  0.47743618  0.97466276  1
  Li  Li108  1  0.56100227  0.97743618  0.47466276  1
  Li  Li109  1  0.93899773  0.02256382  0.97466276  1
  Li  Li110  1  0.43899773  0.47743618  0.52533724  1
  Li  Li111  1  0.06100227  0.52256382  0.02533724  1
