# generated using pymatgen
data_LiF
_symmetry_space_group_name_H-M   'P 1'
_cell_length_a   12.99674953
_cell_length_b   11.72167056
_cell_length_c   8.69388749
_cell_angle_alpha   90.00000000
_cell_angle_beta   90.00000000
_cell_angle_gamma   90.00000000
_symmetry_Int_Tables_number   1
_chemical_formula_structural   LiF
_chemical_formula_sum   'Li48 F48'
_cell_volume   1324.45826085
_cell_formula_units_Z   48
loop_
 _symmetry_equiv_pos_site_id
 _symmetry_equiv_pos_as_xyz
  1  'x, y, z'
loop_
 _atom_site_type_symbol
 _atom_site_label
 _atom_site_symmetry_multiplicity
 _atom_site_fract_x
 _atom_site_fract_y
 _atom_site_fract_z
 _atom_site_occupancy
  F  F0  1  0.83211476  0.67699402  0.06442193  1
  F  F1  1  0.16788524  0.32300598  0.06442193  1
  F  F2  1  0.66788524  0.17699402  0.93557807  1
  F  F3  1  0.33211476  0.82300598  0.93557807  1
  F  F4  1  0.16788524  0.32300598  0.93557807  1
  F  F5  1  0.83211476  0.67699402  0.93557807  1
  F  F6  1  0.33211476  0.82300598  0.06442193  1
  F  F7  1  0.66788524  0.17699402  0.06442193  1
  F  F8  1  0.21685300  0.14151894  0.95582477  1
  F  F9  1  0.78314700  0.85848106  0.95582477  1
  F  F10  1  0.28314700  0.64151894  0.04417523  1
  F  F11  1  0.71685300  0.35848106  0.04417523  1
  F  F12  1  0.78314700  0.85848106  0.04417523  1
  F  F13  1  0.21685300  0.14151894  0.04417523  1
  F  F14  1  0.71685300  0.35848106  0.95582477  1
  F  F15  1  0.28314700  0.64151894  0.95582477  1
  F  F16  1  0.76480586  0.91860719  0.80479826  1
  F  F17  1  0.23519414  0.08139281  0.80479826  1
  F  F18  1  0.73519414  0.41860719  0.19520174  1
  F  F19  1  0.26480586  0.58139281  0.19520174  1
  F  F20  1  0.23519414  0.08139281  0.19520174  1
  F  F21  1  0.76480586  0.91860719  0.19520174  1
  F  F22  1  0.26480586  0.58139281  0.80479826  1
  F  F23  1  0.73519414  0.41860719  0.80479826  1
  F  F24  1  0.21470356  0.89486424  0.24204880  1
  F  F25  1  0.78529644  0.10513576  0.24204880  1
  F  F26  1  0.28529644  0.39486424  0.75795120  1
  F  F27  1  0.71470356  0.60513576  0.75795120  1
  F  F28  1  0.78529644  0.10513576  0.75795120  1
  F  F29  1  0.21470356  0.89486424  0.75795120  1
  F  F30  1  0.71470356  0.60513576  0.24204880  1
  F  F31  1  0.28529644  0.39486424  0.24204880  1
  F  F32  1  0.00000000  0.50000000  0.33009916  1
  F  F33  1  0.50000000  0.00000000  0.66990084  1
  F  F34  1  0.00000000  0.50000000  0.66990084  1
  F  F35  1  0.50000000  0.00000000  0.33009916  1
  F  F36  1  0.38818505  0.02180857  0.00000000  1
  F  F37  1  0.61181495  0.97819143  0.00000000  1
  F  F38  1  0.11181495  0.52180857  0.00000000  1
  F  F39  1  0.88818505  0.47819143  0.00000000  1
  F  F40  1  0.00000000  0.00000000  0.87161974  1
  F  F41  1  0.50000000  0.50000000  0.12838026  1
  F  F42  1  0.00000000  0.00000000  0.12838026  1
  F  F43  1  0.50000000  0.50000000  0.87161974  1
  F  F44  1  0.45542457  0.13267168  0.00000000  1
  F  F45  1  0.54457543  0.86732832  0.00000000  1
  F  F46  1  0.04457543  0.63267168  -0.00000000  1
  F  F47  1  0.95542457  0.36732832  0.00000000  1
  Li  Li48  1  0.00000000  0.00000000  0.00000000  1
  Li  Li49  1  0.50000000  0.50000000  0.00000000  1
  Li  Li50  1  0.20177570  0.70902540  0.90055689  1
  Li  Li51  1  -0.20177570  -0.70902540  0.90055689  1
  Li  Li52  1  0.29822430  1.20902540  -0.90055689  1
  Li  Li53  1  0.70177570  -0.20902540  -0.90055689  1
  Li  Li54  1  -0.20177570  -0.70902540  -0.90055689  1
  Li  Li55  1  0.20177570  0.70902540  -0.90055689  1
  Li  Li56  1  0.70177570  -0.20902540  0.90055689  1
  Li  Li57  1  0.29822430  1.20902540  0.90055689  1
  Li  Li58  1  0.00000000  0.50000000  0.50000000  1
  Li  Li59  1  0.50000000  0.00000000  0.50000000  1
  Li  Li60  1  0.73523389  0.64467258  0.10759865  1
  Li  Li61  1  0.26476611  0.35532742  0.10759865  1
  Li  Li62  1  0.76476611  0.14467258  0.89240135  1
  Li  Li63  1  0.23523389  0.85532742  0.89240135  1
  Li  Li64  1  0.26476611  0.35532742  0.89240135  1
  Li  Li65  1  0.73523389  0.64467258  0.89240135  1
  Li  Li66  1  0.23523389  0.85532742  0.10759865  1
  Li  Li67  1  0.76476611  0.14467258  0.10759865  1
  Li  Li68  1  0.69952541  0.09291974  0.00000000  1
  Li  Li69  1  0.30047459  0.90708026  0.00000000  1
  Li  Li70  1  0.80047459  0.59291974  0.00000000  1
  Li  Li71  1  0.19952541  0.40708026  0.00000000  1
  Li  Li72  1  0.00000000  0.00000000  0.61200667  1
  Li  Li73  1  0.50000000  0.50000000  0.38799333  1
  Li  Li74  1  0.00000000  0.00000000  0.38799333  1
  Li  Li75  1  0.50000000  0.50000000  0.61200667  1
  Li  Li76  1  0.05468050  0.22979862  0.50000000  1
  Li  Li77  1  0.94531950  0.77020138  0.50000000  1
  Li  Li78  1  0.44531950  0.72979862  0.50000000  1
  Li  Li79  1  0.55468050  0.27020138  0.50000000  1
  Li  Li80  1  0.57297004  0.59087296  0.50000000  1
  Li  Li81  1  0.42702996  0.40912704  0.50000000  1
  Li  Li82  1  0.92702996  0.09087296  0.50000000  1
  Li  Li83  1  0.07297004  0.90912704  0.50000000  1
  Li  Li84  1  0.71614288  0.01878861  0.50000000  1
  Li  Li85  1  0.28385712  0.98121139  0.50000000  1
  Li  Li86  1  0.78385712  0.51878861  0.50000000  1
  Li  Li87  1  0.21614288  0.48121139  0.50000000  1
  Li  Li88  1  0.82465283  0.95577056  0.12844108  1
  Li  Li89  1  0.17534717  0.04422944  0.12844108  1
  Li  Li90  1  0.67534717  0.45577056  0.87155892  1
  Li  Li91  1  0.32465283  0.54422944  0.87155892  1
  Li  Li92  1  0.17534717  0.04422944  0.87155892  1
  Li  Li93  1  0.82465283  0.95577056  0.87155892  1
  Li  Li94  1  0.32465283  0.54422944  0.12844108  1
  Li  Li95  1  0.67534717  0.45577056  0.12844108  1
