# generated using pymatgen
data_LiF
_symmetry_space_group_name_H-M   'P 1'
_cell_length_a   12.80165354
_cell_length_b   12.80165354
_cell_length_c   3.44974580
_cell_angle_alpha   90.00000000
_cell_angle_beta   90.00000000
_cell_angle_gamma   120.00000000
_symmetry_Int_Tables_number   1
_chemical_formula_structural   LiF
_chemical_formula_sum   'Li26 F26'
_cell_volume   489.60953245
_cell_formula_units_Z   26
loop_
 _symmetry_equiv_pos_site_id
 _symmetry_equiv_pos_as_xyz
  1  'x, y, z'
loop_
 _atom_site_type_symbol
 _atom_site_label
 _atom_site_symmetry_multiplicity
 _atom_site_fract_x
 _atom_site_fract_y
 _atom_site_fract_z
 _atom_site_occupancy
  F  F0  1  0.95846722  0.91693444  0.25000000  1
  F  F1  1  0.08306556  0.04153278  0.25000000  1
  F  F2  1  0.95846722  0.04153278  0.25000000  1
  F  F3  1  0.04153278  0.08306556  0.75000000  1
  F  F4  1  0.91693444  0.95846722  0.75000000  1
  F  F5  1  0.04153278  0.95846722  0.75000000  1
  F  F6  1  0.00000000  0.00000000  0.25000000  1
  F  F7  1  0.00000000  0.00000000  0.75000000  1
  F  F8  1  0.34018143  0.10898243  0.25000000  1
  F  F9  1  -0.10898243  0.23119900  0.25000000  1
  F  F10  1  -0.23119900  -0.34018143  0.25000000  1
  F  F11  1  -0.34018143  -0.10898243  0.75000000  1
  F  F12  1  0.10898243  -0.23119900  0.75000000  1
  F  F13  1  0.23119900  0.34018143  0.75000000  1
  F  F14  1  0.10898243  0.34018143  0.75000000  1
  F  F15  1  0.23119900  -0.10898243  0.75000000  1
  F  F16  1  -0.34018143  -0.23119900  0.75000000  1
  F  F17  1  -0.10898243  -0.34018143  0.25000000  1
  F  F18  1  -0.23119900  0.10898243  0.25000000  1
  F  F19  1  0.34018143  0.23119900  0.25000000  1
  F  F20  1  0.50000000  0.00000000  0.00000000  1
  F  F21  1  0.00000000  0.50000000  0.00000000  1
  F  F22  1  0.50000000  0.50000000  0.00000000  1
  F  F23  1  0.50000000  0.00000000  0.50000000  1
  F  F24  1  0.00000000  0.50000000  0.50000000  1
  F  F25  1  0.50000000  0.50000000  0.50000000  1
  Li  Li26  1  0.15236629  0.20297446  0.25000000  1
  Li  Li27  1  0.79702554  0.94939183  0.25000000  1
  Li  Li28  1  0.05060817  0.84763371  0.25000000  1
  Li  Li29  1  0.84763371  0.79702554  0.75000000  1
  Li  Li30  1  0.20297446  0.05060817  0.75000000  1
  Li  Li31  1  0.94939183  0.15236629  0.75000000  1
  Li  Li32  1  0.20297446  0.15236629  0.75000000  1
  Li  Li33  1  0.94939183  0.79702554  0.75000000  1
  Li  Li34  1  0.84763371  0.05060817  0.75000000  1
  Li  Li35  1  0.79702554  0.84763371  0.25000000  1
  Li  Li36  1  0.05060817  0.20297446  0.25000000  1
  Li  Li37  1  0.15236629  0.94939183  0.25000000  1
  Li  Li38  1  0.83209899  0.66419799  0.01392751  1
  Li  Li39  1  0.33580201  0.16790101  0.01392751  1
  Li  Li40  1  0.83209899  0.16790101  0.01392751  1
  Li  Li41  1  0.16790101  0.33580201  0.51392751  1
  Li  Li42  1  0.66419799  0.83209899  0.51392751  1
  Li  Li43  1  0.16790101  0.83209899  0.51392751  1
  Li  Li44  1  0.66419799  0.83209899  0.98607249  1
  Li  Li45  1  0.16790101  0.33580201  0.98607249  1
  Li  Li46  1  0.16790101  0.83209899  0.98607249  1
  Li  Li47  1  0.33580201  0.16790101  0.48607249  1
  Li  Li48  1  0.83209899  0.66419799  0.48607249  1
  Li  Li49  1  0.83209899  0.16790101  0.48607249  1
  Li  Li50  1  0.33333333  0.66666667  0.25000000  1
  Li  Li51  1  0.66666667  0.33333333  0.75000000  1
