# generated using pymatgen
data_LiF
_symmetry_space_group_name_H-M   'P 1'
_cell_length_a   6.77321489
_cell_length_b   6.77321489
_cell_length_c   8.14005940
_cell_angle_alpha   90.00000000
_cell_angle_beta   90.00000000
_cell_angle_gamma   90.00000000
_symmetry_Int_Tables_number   1
_chemical_formula_structural   LiF
_chemical_formula_sum   'Li19 F19'
_cell_volume   373.43694631
_cell_formula_units_Z   19
loop_
 _symmetry_equiv_pos_site_id
 _symmetry_equiv_pos_as_xyz
  1  'x, y, z'
loop_
 _atom_site_type_symbol
 _atom_site_label
 _atom_site_symmetry_multiplicity
 _atom_site_fract_x
 _atom_site_fract_y
 _atom_site_fract_z
 _atom_site_occupancy
  F  F0  1  0.27272263  0.60766771  0.87811553  1
  F  F1  1  -0.27272263  -0.60766771  0.87811553  1
  F  F2  1  -0.60766771  0.27272263  0.87811553  1
  F  F3  1  0.60766771  -0.27272263  0.87811553  1
  F  F4  1  -0.27272263  0.60766771  -0.87811553  1
  F  F5  1  0.27272263  -0.60766771  -0.87811553  1
  F  F6  1  0.60766771  0.27272263  -0.87811553  1
  F  F7  1  -0.60766771  -0.27272263  -0.87811553  1
  F  F8  1  -0.27272263  -0.60766771  -0.87811553  1
  F  F9  1  0.27272263  0.60766771  -0.87811553  1
  F  F10  1  0.60766771  -0.27272263  -0.87811553  1
  F  F11  1  -0.60766771  0.27272263  -0.87811553  1
  F  F12  1  0.27272263  -0.60766771  0.87811553  1
  F  F13  1  -0.27272263  0.60766771  0.87811553  1
  F  F14  1  -0.60766771  -0.27272263  0.87811553  1
  F  F15  1  0.60766771  0.27272263  0.87811553  1
  F  F16  1  0.00000000  0.00000000  0.50000000  1
  F  F17  1  0.50000000  0.50000000  0.00000000  1
  F  F18  1  0.50000000  0.50000000  0.50000000  1
  Li  Li19  1  0.34743808  -0.00000000  0.09575518  1
  Li  Li20  1  0.65256192  0.00000000  0.09575518  1
  Li  Li21  1  0.00000000  0.34743808  0.09575518  1
  Li  Li22  1  0.00000000  0.65256192  0.09575518  1
  Li  Li23  1  0.65256192  0.00000000  0.90424482  1
  Li  Li24  1  0.34743808  -0.00000000  0.90424482  1
  Li  Li25  1  0.00000000  0.34743808  0.90424482  1
  Li  Li26  1  0.00000000  0.65256192  0.90424482  1
  Li  Li27  1  0.00000000  0.00000000  0.00000000  1
  Li  Li28  1  0.82102650  0.82102650  0.64116348  1
  Li  Li29  1  0.17897350  0.17897350  0.64116348  1
  Li  Li30  1  0.17897350  0.82102650  0.64116348  1
  Li  Li31  1  0.82102650  0.17897350  0.64116348  1
  Li  Li32  1  0.17897350  0.82102650  0.35883652  1
  Li  Li33  1  0.82102650  0.17897350  0.35883652  1
  Li  Li34  1  0.82102650  0.82102650  0.35883652  1
  Li  Li35  1  0.17897350  0.17897350  0.35883652  1
  Li  Li36  1  0.00000000  0.50000000  0.50000000  1
  Li  Li37  1  0.50000000  0.00000000  0.50000000  1
