# generated using pymatgen
data_LiF
_symmetry_space_group_name_H-M   'P 1'
_cell_length_a   9.43816040
_cell_length_b   6.03160104
_cell_length_c   6.53418540
_cell_angle_alpha   90.00000000
_cell_angle_beta   90.00000000
_cell_angle_gamma   90.00000000
_symmetry_Int_Tables_number   1
_chemical_formula_structural   LiF
_chemical_formula_sum   'Li22 F22'
_cell_volume   371.97299669
_cell_formula_units_Z   22
loop_
 _symmetry_equiv_pos_site_id
 _symmetry_equiv_pos_as_xyz
  1  'x, y, z'
loop_
 _atom_site_type_symbol
 _atom_site_label
 _atom_site_symmetry_multiplicity
 _atom_site_fract_x
 _atom_site_fract_y
 _atom_site_fract_z
 _atom_site_occupancy
  F  F0  1  0.73492503  0.11685036  0.37176848  1
  F  F1  1  -0.73492503  -0.11685036  0.37176848  1
  F  F2  1  -0.23492503  0.61685036  0.12823152  1
  F  F3  1  1.23492503  0.38314964  0.12823152  1
  F  F4  1  -0.73492503  -0.11685036  -0.37176848  1
  F  F5  1  0.73492503  0.11685036  -0.37176848  1
  F  F6  1  1.23492503  0.38314964  0.87176848  1
  F  F7  1  -0.23492503  0.61685036  0.87176848  1
  F  F8  1  0.00000000  0.50000000  0.70720471  1
  F  F9  1  0.50000000  0.00000000  0.79279529  1
  F  F10  1  0.00000000  0.50000000  0.29279529  1
  F  F11  1  0.50000000  0.00000000  0.20720471  1
  F  F12  1  0.06036514  0.48753633  0.19021717  1
  F  F13  1  0.93963486  0.51246367  0.19021717  1
  F  F14  1  0.43963486  0.98753633  0.30978283  1
  F  F15  1  0.56036514  0.01246367  0.30978283  1
  F  F16  1  0.93963486  0.51246367  0.80978283  1
  F  F17  1  0.06036514  0.48753633  0.80978283  1
  F  F18  1  0.56036514  0.01246367  0.69021717  1
  F  F19  1  0.43963486  0.98753633  0.69021717  1
  F  F20  1  0.00000000  0.00000000  0.50000000  1
  F  F21  1  0.50000000  0.50000000  -0.00000000  1
  Li  Li22  1  0.81262738  0.63568252  0.60821837  1
  Li  Li23  1  0.18737262  0.36431748  0.60821837  1
  Li  Li24  1  0.68737262  0.13568252  0.89178163  1
  Li  Li25  1  0.31262738  0.86431748  0.89178163  1
  Li  Li26  1  0.18737262  0.36431748  0.39178163  1
  Li  Li27  1  0.81262738  0.63568252  0.39178163  1
  Li  Li28  1  0.31262738  0.86431748  0.10821837  1
  Li  Li29  1  0.68737262  0.13568252  0.10821837  1
  Li  Li30  1  0.07424733  0.05018896  0.62016714  1
  Li  Li31  1  0.92575267  0.94981104  0.62016714  1
  Li  Li32  1  0.42575267  0.55018896  0.87983286  1
  Li  Li33  1  0.57424733  0.44981104  0.87983286  1
  Li  Li34  1  0.92575267  0.94981104  0.37983286  1
  Li  Li35  1  0.07424733  0.05018896  0.37983286  1
  Li  Li36  1  0.57424733  0.44981104  0.12016714  1
  Li  Li37  1  0.42575267  0.55018896  0.12016714  1
  Li  Li38  1  0.00000000  0.00000000  0.00000000  1
  Li  Li39  1  0.50000000  0.50000000  0.50000000  1
  Li  Li40  1  0.34411906  0.10938747  -0.00000000  1
  Li  Li41  1  0.65588094  0.89061253  -0.00000000  1
  Li  Li42  1  0.15588094  0.60938747  0.50000000  1
  Li  Li43  1  0.84411906  0.39061253  0.50000000  1
