# generated using pymatgen
data_LiYAs2PSe
_symmetry_space_group_name_H-M   'P 1'
_cell_length_a   5.51835481
_cell_length_b   5.66180829
_cell_length_c   7.07674648
_cell_angle_alpha   93.73413452
_cell_angle_beta   97.79594233
_cell_angle_gamma   104.47124236
_symmetry_Int_Tables_number   1
_chemical_formula_structural   LiYAs2PSe
_chemical_formula_sum   'Li2 Y2 As4 P2 Se2'
_cell_volume   210.97819766
_cell_formula_units_Z   2
loop_
 _symmetry_equiv_pos_site_id
 _symmetry_equiv_pos_as_xyz
  1  'x, y, z'
loop_
 _atom_site_type_symbol
 _atom_site_label
 _atom_site_symmetry_multiplicity
 _atom_site_fract_x
 _atom_site_fract_y
 _atom_site_fract_z
 _atom_site_occupancy
  Se  Se0  1  0.00000000  0.00000000  0.00000000  1
  Se  Se1  1  0.50000000  0.50000000  0.50000000  1
  Y  Y2  1  0.50000000  0.50000000  0.00000000  1
  Y  Y3  1  0.50000000  0.00000000  0.50000000  1
  P  P4  1  0.00000000  0.50000000  0.50000000  1
  P  P5  1  0.81000645  0.05501549  0.22039076  1
  As  As6  1  0.58934771  0.61576941  0.11801935  1
  As  As7  1  0.82818097  0.43610333  0.24003582  1
  As  As8  1  0.16947104  0.04170615  0.99689167  1
  As  As9  1  0.94496488  0.45623026  0.66404806  1
  Li  Li10  1  0.56419313  0.37665662  0.80436682  1
  Li  Li11  1  0.96233790  0.78465605  0.76570643  1
