# generated using pymatgen
data_Li3MoP3Se
_symmetry_space_group_name_H-M   'P 1'
_cell_length_a   5.66920506
_cell_length_b   5.81375899
_cell_length_c   6.96340945
_cell_angle_alpha   92.17129707
_cell_angle_beta   95.50814053
_cell_angle_gamma   99.66244739
_symmetry_Int_Tables_number   1
_chemical_formula_structural   Li3MoP3Se
_chemical_formula_sum   'Li3 Mo1 P3 Se1'
_cell_volume   224.86788448
_cell_formula_units_Z   1
loop_
 _symmetry_equiv_pos_site_id
 _symmetry_equiv_pos_as_xyz
  1  'x, y, z'
loop_
 _atom_site_type_symbol
 _atom_site_label
 _atom_site_symmetry_multiplicity
 _atom_site_fract_x
 _atom_site_fract_y
 _atom_site_fract_z
 _atom_site_occupancy
  Se  Se0  1  0.00000000  0.00000000  0.00000000  1
  P  P1  1  0.50000000  0.50000000  0.50000000  1
  P  P2  1  0.25000000  0.25000000  0.25000000  1
  P  P3  1  0.75000000  0.25000000  0.00000000  1
  Mo  Mo4  1  0.25000000  0.75000000  0.50000000  1
  Li  Li5  1  0.90119419  0.18520160  0.57712241  1
  Li  Li6  1  0.13334913  0.26650766  0.89344120  1
  Li  Li7  1  0.73849065  0.70807124  0.73210466  1
