# generated using pymatgen
data_Li3YP3Se2
_symmetry_space_group_name_H-M   'P 1'
_cell_length_a   5.20196629
_cell_length_b   5.37977943
_cell_length_c   7.24862981
_cell_angle_alpha   94.68676331
_cell_angle_beta   100.20679612
_cell_angle_gamma   108.82486548
_symmetry_Int_Tables_number   1
_chemical_formula_structural   Li3YP3Se2
_chemical_formula_sum   'Li3 Y1 P3 Se2'
_cell_volume   186.85444661
_cell_formula_units_Z   1
loop_
 _symmetry_equiv_pos_site_id
 _symmetry_equiv_pos_as_xyz
  1  'x, y, z'
loop_
 _atom_site_type_symbol
 _atom_site_label
 _atom_site_symmetry_multiplicity
 _atom_site_fract_x
 _atom_site_fract_y
 _atom_site_fract_z
 _atom_site_occupancy
  P  P0  1  0.00000000  0.00000000  0.00000000  1
  P  P1  1  0.50000000  0.50000000  0.50000000  1
  P  P2  1  0.25000000  0.25000000  0.25000000  1
  Se  Se3  1  0.75000000  0.25000000  0.00000000  1
  Se  Se4  1  0.25000000  0.75000000  0.50000000  1
  Li  Li5  1  0.69404885  0.83924704  0.98964744  1
  Li  Li6  1  0.57043849  0.08683236  0.24530833  1
  Li  Li7  1  0.81694017  0.32573975  0.55600630  1
  Y  Y8  1  0.89245632  0.62667841  0.29499416  1
