# generated using pymatgen
data_Li4TeF2
_symmetry_space_group_name_H-M   'P 1'
_cell_length_a   19.03978796
_cell_length_b   19.03978796
_cell_length_c   8.37862009
_cell_angle_alpha   90.00000000
_cell_angle_beta   90.00000000
_cell_angle_gamma   120.00000000
_symmetry_Int_Tables_number   1
_chemical_formula_structural   Li4TeF2
_chemical_formula_sum   'Li96 Te24 F48'
_cell_volume   2630.43361192
_cell_formula_units_Z   24
loop_
 _symmetry_equiv_pos_site_id
 _symmetry_equiv_pos_as_xyz
  1  'x, y, z'
loop_
 _atom_site_type_symbol
 _atom_site_label
 _atom_site_symmetry_multiplicity
 _atom_site_fract_x
 _atom_site_fract_y
 _atom_site_fract_z
 _atom_site_occupancy
  F  F0  1  0.28103596  0.21643107  0.40527838  1
  F  F1  1  -0.21643107  0.06460489  0.40527838  1
  F  F2  1  -0.06460489  -0.28103596  0.40527838  1
  F  F3  1  0.21643107  0.28103596  0.09472162  1
  F  F4  1  0.06460489  -0.21643107  0.09472162  1
  F  F5  1  -0.28103596  -0.06460489  0.09472162  1
  F  F6  1  -0.28103596  -0.21643107  -0.40527838  1
  F  F7  1  0.21643107  -0.06460489  -0.40527838  1
  F  F8  1  0.06460489  0.28103596  -0.40527838  1
  F  F9  1  -0.21643107  -0.28103596  0.90527838  1
  F  F10  1  -0.06460489  0.21643107  0.90527838  1
  F  F11  1  0.28103596  0.06460489  0.90527838  1
  F  F12  1  0.94770263  0.54976440  0.73861172  1
  F  F13  1  0.45023560  0.39793823  0.73861172  1
  F  F14  1  0.60206177  0.05229737  0.73861172  1
  F  F15  1  0.88309774  0.61436929  0.42805495  1
  F  F16  1  0.73127156  0.11690226  0.42805495  1
  F  F17  1  0.38563071  0.26872844  0.42805495  1
  F  F18  1  0.38563071  0.11690226  -0.07194505  1
  F  F19  1  0.88309774  0.26872844  -0.07194505  1
  F  F20  1  0.73127156  0.61436929  -0.07194505  1
  F  F21  1  0.45023560  0.05229737  1.23861172  1
  F  F22  1  0.60206177  0.54976440  1.23861172  1
  F  F23  1  0.94770263  0.39793823  1.23861172  1
  F  F24  1  0.61436929  0.88309774  1.07194505  1
  F  F25  1  0.11690226  0.73127156  1.07194505  1
  F  F26  1  0.26872844  0.38563071  1.07194505  1
  F  F27  1  0.54976440  0.94770263  0.76138828  1
  F  F28  1  0.39793823  0.45023560  0.76138828  1
  F  F29  1  0.05229737  0.60206177  0.76138828  1
  F  F30  1  0.05229737  0.45023560  0.26138828  1
  F  F31  1  0.54976440  0.60206177  0.26138828  1
  F  F32  1  0.39793823  0.94770263  0.26138828  1
  F  F33  1  0.11690226  0.38563071  1.57194505  1
  F  F34  1  0.26872844  0.88309774  1.57194505  1
  F  F35  1  0.61436929  0.73127156  1.57194505  1
  F  F36  1  0.00000000  0.00000000  0.36204322  1
  F  F37  1  0.00000000  0.00000000  0.13795678  1
  F  F38  1  0.00000000  0.00000000  0.63795678  1
  F  F39  1  0.00000000  0.00000000  0.86204322  1
  F  F40  1  0.66666667  0.33333333  0.69537655  1
  F  F41  1  0.66666667  0.33333333  0.47129012  1
  F  F42  1  0.66666667  0.33333333  0.97129012  1
  F  F43  1  0.66666667  0.33333333  0.19537655  1
  F  F44  1  0.33333333  0.66666667  0.02870988  1
  F  F45  1  0.33333333  0.66666667  0.80462345  1
  F  F46  1  0.33333333  0.66666667  0.30462345  1
  F  F47  1  0.33333333  0.66666667  0.52870988  1
  Li  Li48  1  0.17235774  0.00000000  0.25000000  1
  Li  Li49  1  0.00000000  0.17235774  0.25000000  1
  Li  Li50  1  0.82764226  0.82764226  0.25000000  1
  Li  Li51  1  0.82764226  0.00000000  0.75000000  1
  Li  Li52  1  0.00000000  0.82764226  0.75000000  1
  Li  Li53  1  0.17235774  0.17235774  0.75000000  1
  Li  Li54  1  0.83902440  0.33333333  0.58333333  1
  Li  Li55  1  0.66666667  0.50569107  0.58333333  1
  Li  Li56  1  0.49430893  0.16097560  0.58333333  1
  Li  Li57  1  0.49430893  0.33333333  0.08333333  1
  Li  Li58  1  0.66666667  0.16097560  0.08333333  1
  Li  Li59  1  0.83902440  0.50569107  0.08333333  1
  Li  Li60  1  0.50569107  0.66666667  0.91666667  1
  Li  Li61  1  0.33333333  0.83902440  0.91666667  1
  Li  Li62  1  0.16097560  0.49430893  0.91666667  1
  Li  Li63  1  0.16097560  0.66666667  0.41666667  1
  Li  Li64  1  0.33333333  0.49430893  0.41666667  1
  Li  Li65  1  0.50569107  0.83902440  0.41666667  1
  Li  Li66  1  0.15248968  0.75818414  0.90970477  1
  Li  Li67  1  0.24181586  0.39430555  0.90970477  1
  Li  Li68  1  0.60569445  0.84751032  0.90970477  1
  Li  Li69  1  0.75818414  0.15248968  0.59029523  1
  Li  Li70  1  0.39430555  0.24181586  0.59029523  1
  Li  Li71  1  0.84751032  0.60569445  0.59029523  1
  Li  Li72  1  0.84751032  0.24181586  0.09029523  1
  Li  Li73  1  0.75818414  0.60569445  0.09029523  1
  Li  Li74  1  0.39430555  0.15248968  0.09029523  1
  Li  Li75  1  0.24181586  0.84751032  0.40970477  1
  Li  Li76  1  0.60569445  0.75818414  0.40970477  1
  Li  Li77  1  0.15248968  0.39430555  0.40970477  1
  Li  Li78  1  0.81915635  0.09151747  0.24303811  1
  Li  Li79  1  0.90848253  0.72763888  0.24303811  1
  Li  Li80  1  0.27236112  0.18084365  0.24303811  1
  Li  Li81  1  0.42485080  0.48582302  0.92362856  1
  Li  Li82  1  0.06097221  0.57514920  0.92362856  1
  Li  Li83  1  0.51417698  0.93902779  0.92362856  1
  Li  Li84  1  0.51417698  0.57514920  0.42362856  1
  Li  Li85  1  0.42485080  0.93902779  0.42362856  1
  Li  Li86  1  0.06097221  0.48582302  0.42362856  1
  Li  Li87  1  0.90848253  0.18084365  0.74303811  1
  Li  Li88  1  0.27236112  0.09151747  0.74303811  1
  Li  Li89  1  0.81915635  0.72763888  0.74303811  1
  Li  Li90  1  0.48582302  0.42485080  0.57637144  1
  Li  Li91  1  0.57514920  0.06097221  0.57637144  1
  Li  Li92  1  0.93902779  0.51417698  0.57637144  1
  Li  Li93  1  0.09151747  0.81915635  0.25696189  1
  Li  Li94  1  0.72763888  0.90848253  0.25696189  1
  Li  Li95  1  0.18084365  0.27236112  0.25696189  1
  Li  Li96  1  0.18084365  0.90848253  0.75696189  1
  Li  Li97  1  0.09151747  0.27236112  0.75696189  1
  Li  Li98  1  0.72763888  0.81915635  0.75696189  1
  Li  Li99  1  0.57514920  0.51417698  0.07637144  1
  Li  Li100  1  0.93902779  0.42485080  0.07637144  1
  Li  Li101  1  0.48582302  0.06097221  0.07637144  1
  Li  Li102  1  0.40106187  0.61787527  0.96000823  1
  Li  Li103  1  0.38212473  0.78318659  0.96000823  1
  Li  Li104  1  0.21681341  0.59893813  0.96000823  1
  Li  Li105  1  0.61787527  0.40106187  0.53999177  1
  Li  Li106  1  0.78318659  0.38212473  0.53999177  1
  Li  Li107  1  0.59893813  0.21681341  0.53999177  1
  Li  Li108  1  0.59893813  0.38212473  0.03999177  1
  Li  Li109  1  0.61787527  0.21681341  0.03999177  1
  Li  Li110  1  0.78318659  0.40106187  0.03999177  1
  Li  Li111  1  0.38212473  0.59893813  0.46000823  1
  Li  Li112  1  0.21681341  0.61787527  0.46000823  1
  Li  Li113  1  0.40106187  0.78318659  0.46000823  1
  Li  Li114  1  0.06772853  0.95120861  0.29334156  1
  Li  Li115  1  0.04879139  0.11651993  0.29334156  1
  Li  Li116  1  0.88348007  0.93227147  0.29334156  1
  Li  Li117  1  0.28454194  0.73439520  0.87332511  1
  Li  Li118  1  0.44985326  0.71545806  0.87332511  1
  Li  Li119  1  0.26560480  0.55014674  0.87332511  1
  Li  Li120  1  0.26560480  0.71545806  0.37332511  1
  Li  Li121  1  0.28454194  0.55014674  0.37332511  1
  Li  Li122  1  0.44985326  0.73439520  0.37332511  1
  Li  Li123  1  0.04879139  0.93227147  0.79334156  1
  Li  Li124  1  0.88348007  0.95120861  0.79334156  1
  Li  Li125  1  0.06772853  0.11651993  0.79334156  1
  Li  Li126  1  0.73439520  0.28454194  0.62667489  1
  Li  Li127  1  0.71545806  0.44985326  0.62667489  1
  Li  Li128  1  0.55014674  0.26560480  0.62667489  1
  Li  Li129  1  0.95120861  0.06772853  0.20665844  1
  Li  Li130  1  0.11651993  0.04879139  0.20665844  1
  Li  Li131  1  0.93227147  0.88348007  0.20665844  1
  Li  Li132  1  0.93227147  0.04879139  0.70665844  1
  Li  Li133  1  0.95120861  0.88348007  0.70665844  1
  Li  Li134  1  0.11651993  0.06772853  0.70665844  1
  Li  Li135  1  0.71545806  0.26560480  0.12667489  1
  Li  Li136  1  0.55014674  0.28454194  0.12667489  1
  Li  Li137  1  0.73439520  0.44985326  0.12667489  1
  Li  Li138  1  0.00000000  0.00000000  0.25000000  1
  Li  Li139  1  0.00000000  0.00000000  0.75000000  1
  Li  Li140  1  0.66666667  0.33333333  0.58333333  1
  Li  Li141  1  0.66666667  0.33333333  0.08333333  1
  Li  Li142  1  0.33333333  0.66666667  0.91666667  1
  Li  Li143  1  0.33333333  0.66666667  0.41666667  1
  Te  Te144  1  0.50000000  0.00000000  0.00000000  1
  Te  Te145  1  0.00000000  0.50000000  0.00000000  1
  Te  Te146  1  0.50000000  0.50000000  0.00000000  1
  Te  Te147  1  0.00000000  0.50000000  0.50000000  1
  Te  Te148  1  0.50000000  0.00000000  0.50000000  1
  Te  Te149  1  0.50000000  0.50000000  0.50000000  1
  Te  Te150  1  0.16666667  0.33333333  0.33333333  1
  Te  Te151  1  0.66666667  0.83333333  0.33333333  1
  Te  Te152  1  0.16666667  0.83333333  0.33333333  1
  Te  Te153  1  0.66666667  0.83333333  0.83333333  1
  Te  Te154  1  0.16666667  0.33333333  0.83333333  1
  Te  Te155  1  0.16666667  0.83333333  0.83333333  1
  Te  Te156  1  0.83333333  0.66666667  0.66666667  1
  Te  Te157  1  0.33333333  0.16666667  0.66666667  1
  Te  Te158  1  0.83333333  0.16666667  0.66666667  1
  Te  Te159  1  0.33333333  0.16666667  0.16666667  1
  Te  Te160  1  0.83333333  0.66666667  0.16666667  1
  Te  Te161  1  0.83333333  0.16666667  0.16666667  1
  Te  Te162  1  0.00000000  0.00000000  0.00000000  1
  Te  Te163  1  0.00000000  0.00000000  0.50000000  1
  Te  Te164  1  0.66666667  0.33333333  0.33333333  1
  Te  Te165  1  0.66666667  0.33333333  0.83333333  1
  Te  Te166  1  0.33333333  0.66666667  0.66666667  1
  Te  Te167  1  0.33333333  0.66666667  0.16666667  1
