# generated using pymatgen
data_Li3Y2(P2Se)2
_symmetry_space_group_name_H-M   'P 1'
_cell_length_a   4.78931734
_cell_length_b   5.10186724
_cell_length_c   7.10797631
_cell_angle_alpha   95.08861209
_cell_angle_beta   101.08193923
_cell_angle_gamma   110.43893233
_symmetry_Int_Tables_number   1
_chemical_formula_structural   Li3Y2(P2Se)2
_chemical_formula_sum   'Li3 Y2 P4 Se2'
_cell_volume   157.40136344
_cell_formula_units_Z   1
loop_
 _symmetry_equiv_pos_site_id
 _symmetry_equiv_pos_as_xyz
  1  'x, y, z'
loop_
 _atom_site_type_symbol
 _atom_site_label
 _atom_site_symmetry_multiplicity
 _atom_site_fract_x
 _atom_site_fract_y
 _atom_site_fract_z
 _atom_site_occupancy
  P  P0  1  0.00000000  0.00000000  0.00000000  1
  P  P1  1  0.33300000  0.66700000  0.25000000  1
  P  P2  1  0.66700000  0.33300000  0.50000000  1
  P  P3  1  0.00000000  0.00000000  0.75000000  1
  Se  Se4  1  0.92838592  0.69067944  0.55916599  1
  Se  Se5  1  0.89281925  0.88680053  0.99982974  1
  Li  Li6  1  0.56263015  0.93398172  0.11281675  1
  Li  Li7  1  0.27989833  0.89777652  0.22548751  1
  Li  Li8  1  0.61731438  0.45724572  0.39196464  1
  Y  Y9  1  0.42348383  0.11631295  0.36328809  1
  Y  Y10  1  0.62518594  0.49757899  0.24226879  1
