# generated using pymatgen
data_Li2Si4Te3F12
_symmetry_space_group_name_H-M   'P 1'
_cell_length_a   13.00895820
_cell_length_b   13.00895820
_cell_length_c   8.56753141
_cell_angle_alpha   90.00000000
_cell_angle_beta   90.00000000
_cell_angle_gamma   90.00000000
_symmetry_Int_Tables_number   1
_chemical_formula_structural   Li2Si4Te3F12
_chemical_formula_sum   'Li8 Si16 Te12 F48'
_cell_volume   1449.90898681
_cell_formula_units_Z   4
loop_
 _symmetry_equiv_pos_site_id
 _symmetry_equiv_pos_as_xyz
  1  'x, y, z'
loop_
 _atom_site_type_symbol
 _atom_site_label
 _atom_site_symmetry_multiplicity
 _atom_site_fract_x
 _atom_site_fract_y
 _atom_site_fract_z
 _atom_site_occupancy
  F  F0  1  0.57759559  0.00000000  -0.00000000  1
  F  F1  1  0.92240441  -0.00000000  0.50000000  1
  F  F2  1  0.25000000  0.32759559  0.25000000  1
  F  F3  1  0.25000000  0.67240441  0.75000000  1
  F  F4  1  0.42240441  0.00000000  -0.00000000  1
  F  F5  1  0.07759559  -0.00000000  0.50000000  1
  F  F6  1  0.75000000  0.67240441  0.75000000  1
  F  F7  1  0.75000000  0.32759559  0.25000000  1
  F  F8  1  0.07759559  0.50000000  0.50000000  1
  F  F9  1  0.42240441  0.50000000  -0.00000000  1
  F  F10  1  0.75000000  0.82759559  0.75000000  1
  F  F11  1  0.75000000  0.17240441  0.25000000  1
  F  F12  1  0.92240441  0.50000000  0.50000000  1
  F  F13  1  0.57759559  0.50000000  -0.00000000  1
  F  F14  1  0.25000000  0.17240441  0.25000000  1
  F  F15  1  0.25000000  0.82759559  0.75000000  1
  F  F16  1  0.36094049  0.64485451  0.03699720  1
  F  F17  1  0.13905951  -0.64485451  0.53699720  1
  F  F18  1  -0.39485451  1.11094049  0.28699720  1
  F  F19  1  0.89485451  -0.11094049  0.78699720  1
  F  F20  1  0.13905951  0.64485451  0.46300280  1
  F  F21  1  0.36094049  -0.64485451  -0.03699720  1
  F  F22  1  0.89485451  1.11094049  0.21300280  1
  F  F23  1  -0.39485451  -0.11094049  0.71300280  1
  F  F24  1  -0.36094049  -0.64485451  -0.03699720  1
  F  F25  1  0.86094049  0.64485451  0.46300280  1
  F  F26  1  1.39485451  -0.11094049  0.71300280  1
  F  F27  1  0.10514549  1.11094049  0.21300280  1
  F  F28  1  0.86094049  -0.64485451  0.53699720  1
  F  F29  1  -0.36094049  0.64485451  0.03699720  1
  F  F30  1  0.10514549  -0.11094049  0.78699720  1
  F  F31  1  1.39485451  1.11094049  0.28699720  1
  F  F32  1  0.86094049  1.14485451  0.53699720  1
  F  F33  1  0.63905951  -0.14485451  1.03699720  1
  F  F34  1  0.10514549  1.61094049  0.78699720  1
  F  F35  1  1.39485451  0.38905951  1.28699720  1
  F  F36  1  0.63905951  1.14485451  0.96300280  1
  F  F37  1  0.86094049  -0.14485451  0.46300280  1
  F  F38  1  1.39485451  1.61094049  0.71300280  1
  F  F39  1  0.10514549  0.38905951  1.21300280  1
  F  F40  1  0.13905951  -0.14485451  0.46300280  1
  F  F41  1  1.36094049  1.14485451  0.96300280  1
  F  F42  1  1.89485451  0.38905951  1.21300280  1
  F  F43  1  0.60514549  1.61094049  0.71300280  1
  F  F44  1  1.36094049  -0.14485451  1.03699720  1
  F  F45  1  0.13905951  1.14485451  0.53699720  1
  F  F46  1  0.60514549  0.38905951  1.28699720  1
  F  F47  1  1.89485451  1.61094049  0.78699720  1
  Li  Li48  1  0.00000000  0.25000000  0.53816939  1
  Li  Li49  1  0.00000000  0.75000000  0.78816939  1
  Li  Li50  1  0.50000000  0.25000000  0.96183061  1
  Li  Li51  1  0.50000000  0.75000000  0.71183061  1
  Li  Li52  1  0.50000000  0.75000000  0.03816939  1
  Li  Li53  1  0.50000000  0.25000000  0.28816939  1
  Li  Li54  1  0.00000000  0.75000000  0.46183061  1
  Li  Li55  1  0.00000000  0.25000000  0.21183061  1
  Si  Si56  1  0.27526495  0.52526495  0.87500000  1
  Si  Si57  1  0.22473505  0.47473505  0.37500000  1
  Si  Si58  1  0.72473505  0.02526495  0.12500000  1
  Si  Si59  1  0.77526495  0.97473505  0.62500000  1
  Si  Si60  1  0.72473505  0.47473505  0.12500000  1
  Si  Si61  1  0.77526495  0.52526495  0.62500000  1
  Si  Si62  1  0.27526495  0.97473505  0.87500000  1
  Si  Si63  1  0.22473505  0.02526495  0.37500000  1
  Si  Si64  1  0.77526495  0.02526495  0.37500000  1
  Si  Si65  1  0.72473505  0.97473505  0.87500000  1
  Si  Si66  1  0.22473505  0.52526495  0.62500000  1
  Si  Si67  1  0.27526495  0.47473505  0.12500000  1
  Si  Si68  1  0.22473505  0.97473505  0.62500000  1
  Si  Si69  1  0.27526495  0.02526495  0.12500000  1
  Si  Si70  1  0.77526495  0.47473505  0.37500000  1
  Si  Si71  1  0.72473505  0.52526495  0.87500000  1
  Te  Te72  1  0.00000000  0.25000000  0.37500000  1
  Te  Te73  1  0.00000000  0.75000000  0.62500000  1
  Te  Te74  1  0.50000000  0.75000000  0.87500000  1
  Te  Te75  1  0.50000000  0.25000000  0.12500000  1
  Te  Te76  1  0.00000000  0.00000000  0.50000000  1
  Te  Te77  1  0.50000000  0.00000000  -0.00000000  1
  Te  Te78  1  0.25000000  0.75000000  0.75000000  1
  Te  Te79  1  0.25000000  0.25000000  0.25000000  1
  Te  Te80  1  0.50000000  0.50000000  -0.00000000  1
  Te  Te81  1  0.00000000  0.50000000  0.50000000  1
  Te  Te82  1  0.75000000  0.25000000  0.25000000  1
  Te  Te83  1  0.75000000  0.75000000  0.75000000  1
