# generated using pymatgen
data_Li2YMoAs2P3
_symmetry_space_group_name_H-M   'P 1'
_cell_length_a   5.15286514
_cell_length_b   5.37373215
_cell_length_c   7.17878087
_cell_angle_alpha   94.82948153
_cell_angle_beta   100.33215761
_cell_angle_gamma   108.49688521
_symmetry_Int_Tables_number   1
_chemical_formula_structural   Li2YMoAs2P3
_chemical_formula_sum   'Li2 Y1 Mo1 As2 P3'
_cell_volume   183.32262597
_cell_formula_units_Z   1
loop_
 _symmetry_equiv_pos_site_id
 _symmetry_equiv_pos_as_xyz
  1  'x, y, z'
loop_
 _atom_site_type_symbol
 _atom_site_label
 _atom_site_symmetry_multiplicity
 _atom_site_fract_x
 _atom_site_fract_y
 _atom_site_fract_z
 _atom_site_occupancy
  Y  Y0  1  0.00000000  0.00000000  0.00000000  1
  P  P1  1  0.50000000  0.50000000  0.50000000  1
  P  P2  1  0.25000000  0.25000000  0.25000000  1
  P  P3  1  0.75000000  0.25000000  0.00000000  1
  Mo  Mo4  1  0.25000000  0.75000000  0.50000000  1
  As  As5  1  0.78269341  0.36020721  0.17670712  1
  As  As6  1  0.76628563  0.83323282  0.06722238  1
  Li  Li7  1  0.26045953  0.25133197  0.92718067  1
  Li  Li8  1  0.76415523  0.18025335  0.44153638  1
