# generated using pymatgen
data_Li2Si4Te3F12
_symmetry_space_group_name_H-M   'P 1'
_cell_length_a   14.71113073
_cell_length_b   14.71113073
_cell_length_c   7.32442368
_cell_angle_alpha   90.00000000
_cell_angle_beta   90.00000000
_cell_angle_gamma   90.00000000
_symmetry_Int_Tables_number   1
_chemical_formula_structural   Li2Si4Te3F12
_chemical_formula_sum   'Li8 Si16 Te12 F48'
_cell_volume   1585.13249138
_cell_formula_units_Z   4
loop_
 _symmetry_equiv_pos_site_id
 _symmetry_equiv_pos_as_xyz
  1  'x, y, z'
loop_
 _atom_site_type_symbol
 _atom_site_label
 _atom_site_symmetry_multiplicity
 _atom_site_fract_x
 _atom_site_fract_y
 _atom_site_fract_z
 _atom_site_occupancy
  F  F0  1  0.43637422  0.04838217  0.32921378  1
  F  F1  1  0.06362578  -0.04838217  0.82921378  1
  F  F2  1  0.20161783  1.18637422  0.57921378  1
  F  F3  1  0.29838217  -0.18637422  1.07921378  1
  F  F4  1  0.06362578  0.04838217  0.17078622  1
  F  F5  1  0.43637422  -0.04838217  -0.32921378  1
  F  F6  1  0.29838217  1.18637422  -0.07921378  1
  F  F7  1  0.20161783  -0.18637422  0.42078622  1
  F  F8  1  -0.43637422  -0.04838217  -0.32921378  1
  F  F9  1  0.93637422  0.04838217  0.17078622  1
  F  F10  1  0.79838217  -0.18637422  0.42078622  1
  F  F11  1  0.70161783  1.18637422  -0.07921378  1
  F  F12  1  0.93637422  -0.04838217  0.82921378  1
  F  F13  1  -0.43637422  0.04838217  0.32921378  1
  F  F14  1  0.70161783  -0.18637422  1.07921378  1
  F  F15  1  0.79838217  1.18637422  0.57921378  1
  F  F16  1  0.93637422  0.54838217  0.82921378  1
  F  F17  1  0.56362578  0.45161783  1.32921378  1
  F  F18  1  0.70161783  1.68637422  1.07921378  1
  F  F19  1  0.79838217  0.31362578  1.57921378  1
  F  F20  1  0.56362578  0.54838217  0.67078622  1
  F  F21  1  0.93637422  0.45161783  0.17078622  1
  F  F22  1  0.79838217  1.68637422  0.42078622  1
  F  F23  1  0.70161783  0.31362578  0.92078622  1
  F  F24  1  0.06362578  0.45161783  0.17078622  1
  F  F25  1  1.43637422  0.54838217  0.67078622  1
  F  F26  1  1.29838217  0.31362578  0.92078622  1
  F  F27  1  1.20161783  1.68637422  0.42078622  1
  F  F28  1  1.43637422  0.45161783  1.32921378  1
  F  F29  1  0.06362578  0.54838217  0.82921378  1
  F  F30  1  1.20161783  0.31362578  1.57921378  1
  F  F31  1  1.29838217  1.68637422  1.07921378  1
  F  F32  1  0.26111139  0.51111139  0.87500000  1
  F  F33  1  0.23888861  0.48888861  0.37500000  1
  F  F34  1  0.73888861  0.01111139  0.12500000  1
  F  F35  1  0.76111139  0.98888861  0.62500000  1
  F  F36  1  0.73888861  0.48888861  0.12500000  1
  F  F37  1  0.76111139  0.51111139  0.62500000  1
  F  F38  1  0.26111139  0.98888861  0.87500000  1
  F  F39  1  0.23888861  0.01111139  0.37500000  1
  F  F40  1  0.76111139  0.01111139  0.37500000  1
  F  F41  1  0.73888861  0.98888861  0.87500000  1
  F  F42  1  0.23888861  0.51111139  0.62500000  1
  F  F43  1  0.26111139  0.48888861  0.12500000  1
  F  F44  1  0.23888861  0.98888861  0.62500000  1
  F  F45  1  0.26111139  0.01111139  0.12500000  1
  F  F46  1  0.76111139  0.48888861  0.37500000  1
  F  F47  1  0.73888861  0.51111139  0.87500000  1
  Li  Li48  1  0.00000000  0.00000000  0.50000000  1
  Li  Li49  1  0.50000000  0.00000000  0.00000000  1
  Li  Li50  1  0.25000000  0.75000000  0.75000000  1
  Li  Li51  1  0.25000000  0.25000000  0.25000000  1
  Li  Li52  1  0.50000000  0.50000000  0.00000000  1
  Li  Li53  1  0.00000000  0.50000000  0.50000000  1
  Li  Li54  1  0.75000000  0.25000000  0.25000000  1
  Li  Li55  1  0.75000000  0.75000000  0.75000000  1
  Si  Si56  1  0.74193572  -0.00000000  0.00000000  1
  Si  Si57  1  0.75806428  0.00000000  0.50000000  1
  Si  Si58  1  0.25000000  0.49193572  0.25000000  1
  Si  Si59  1  0.25000000  0.50806428  0.75000000  1
  Si  Si60  1  0.25806428  0.00000000  0.00000000  1
  Si  Si61  1  0.24193572  -0.00000000  0.50000000  1
  Si  Si62  1  0.75000000  0.50806428  0.75000000  1
  Si  Si63  1  0.75000000  0.49193572  0.25000000  1
  Si  Si64  1  0.24193572  0.50000000  0.50000000  1
  Si  Si65  1  0.25806428  0.50000000  -0.00000000  1
  Si  Si66  1  0.75000000  0.99193572  0.75000000  1
  Si  Si67  1  0.75000000  0.00806428  0.25000000  1
  Si  Si68  1  0.75806428  0.50000000  0.50000000  1
  Si  Si69  1  0.74193572  0.50000000  0.00000000  1
  Si  Si70  1  0.25000000  0.00806428  0.25000000  1
  Si  Si71  1  0.25000000  0.99193572  0.75000000  1
  Te  Te72  1  0.00000000  0.00000000  0.00000000  1
  Te  Te73  1  0.50000000  0.00000000  0.50000000  1
  Te  Te74  1  0.25000000  0.75000000  0.25000000  1
  Te  Te75  1  0.25000000  0.25000000  0.75000000  1
  Te  Te76  1  0.50000000  0.50000000  0.50000000  1
  Te  Te77  1  0.00000000  0.50000000  0.00000000  1
  Te  Te78  1  0.75000000  0.25000000  0.75000000  1
  Te  Te79  1  0.75000000  0.75000000  0.25000000  1
  Te  Te80  1  0.00000000  0.75000000  0.12500000  1
  Te  Te81  1  0.50000000  0.75000000  0.37500000  1
  Te  Te82  1  0.50000000  0.25000000  0.62500000  1
  Te  Te83  1  0.00000000  0.25000000  0.87500000  1
