# generated using pymatgen
data_LiF
_symmetry_space_group_name_H-M   'P 1'
_cell_length_a   11.76261042
_cell_length_b   11.76261042
_cell_length_c   3.74195962
_cell_angle_alpha   90.00000000
_cell_angle_beta   90.00000000
_cell_angle_gamma   120.00000000
_symmetry_Int_Tables_number   1
_chemical_formula_structural   LiF
_chemical_formula_sum   'Li16 F16'
_cell_volume   448.37062768
_cell_formula_units_Z   16
loop_
 _symmetry_equiv_pos_site_id
 _symmetry_equiv_pos_as_xyz
  1  'x, y, z'
loop_
 _atom_site_type_symbol
 _atom_site_label
 _atom_site_symmetry_multiplicity
 _atom_site_fract_x
 _atom_site_fract_y
 _atom_site_fract_z
 _atom_site_occupancy
  F  F0  1  0.04969610  0.00489065  0.52691639  1
  F  F1  1  -0.00489065  0.04480545  0.52691639  1
  F  F2  1  -0.04480545  -0.04969610  0.52691639  1
  F  F3  1  -0.04969610  -0.00489065  1.02691639  1
  F  F4  1  0.00489065  -0.04480545  1.02691639  1
  F  F5  1  0.04480545  0.04969610  1.02691639  1
  F  F6  1  -0.04969610  -0.00489065  -0.52691639  1
  F  F7  1  0.00489065  -0.04480545  -0.52691639  1
  F  F8  1  0.04480545  0.04969610  -0.52691639  1
  F  F9  1  0.04969610  0.00489065  -0.02691639  1
  F  F10  1  -0.00489065  0.04480545  -0.02691639  1
  F  F11  1  -0.04480545  -0.04969610  -0.02691639  1
  F  F12  1  0.33333333  0.66666667  0.11255088  1
  F  F13  1  0.66666667  0.33333333  0.61255088  1
  F  F14  1  0.66666667  0.33333333  0.88744912  1
  F  F15  1  0.33333333  0.66666667  0.38744912  1
  Li  Li16  1  0.44758621  0.28197566  0.02356754  1
  Li  Li17  1  0.71802434  0.16561054  0.02356754  1
  Li  Li18  1  0.83438946  0.55241379  0.02356754  1
  Li  Li19  1  0.55241379  0.71802434  0.52356754  1
  Li  Li20  1  0.28197566  0.83438946  0.52356754  1
  Li  Li21  1  0.16561054  0.44758621  0.52356754  1
  Li  Li22  1  0.55241379  0.71802434  0.97643246  1
  Li  Li23  1  0.28197566  0.83438946  0.97643246  1
  Li  Li24  1  0.16561054  0.44758621  0.97643246  1
  Li  Li25  1  0.44758621  0.28197566  0.47643246  1
  Li  Li26  1  0.71802434  0.16561054  0.47643246  1
  Li  Li27  1  0.83438946  0.55241379  0.47643246  1
  Li  Li28  1  0.00000000  0.00000000  0.25000000  1
  Li  Li29  1  0.00000000  0.00000000  0.75000000  1
  Li  Li30  1  0.66666667  0.33333333  0.25000000  1
  Li  Li31  1  0.33333333  0.66666667  0.75000000  1
