# generated using pymatgen
data_LiF
_symmetry_space_group_name_H-M   'P 1'
_cell_length_a   6.47555821
_cell_length_b   6.47555821
_cell_length_c   14.06145551
_cell_angle_alpha   90.00000000
_cell_angle_beta   90.00000000
_cell_angle_gamma   120.00000000
_symmetry_Int_Tables_number   1
_chemical_formula_structural   LiF
_chemical_formula_sum   'Li21 F21'
_cell_volume   510.64058812
_cell_formula_units_Z   21
loop_
 _symmetry_equiv_pos_site_id
 _symmetry_equiv_pos_as_xyz
  1  'x, y, z'
loop_
 _atom_site_type_symbol
 _atom_site_label
 _atom_site_symmetry_multiplicity
 _atom_site_fract_x
 _atom_site_fract_y
 _atom_site_fract_z
 _atom_site_occupancy
  F  F0  1  0.00000000  0.00000000  0.33320051  1
  F  F1  1  0.00000000  0.00000000  0.66679949  1
  F  F2  1  0.50735680  0.32052472  0.18239946  1
  F  F3  1  0.67947528  0.18683209  0.18239946  1
  F  F4  1  0.81316791  0.49264320  0.18239946  1
  F  F5  1  0.67947528  0.49264320  0.81760054  1
  F  F6  1  0.81316791  0.32052472  0.81760054  1
  F  F7  1  0.50735680  0.18683209  0.81760054  1
  F  F8  1  0.24889218  0.61256917  0.72150844  1
  F  F9  1  0.38743083  0.63632301  0.72150844  1
  F  F10  1  0.36367699  0.75110782  0.72150844  1
  F  F11  1  0.38743083  0.75110782  0.27849156  1
  F  F12  1  0.36367699  0.61256917  0.27849156  1
  F  F13  1  0.24889218  0.63632301  0.27849156  1
  F  F14  1  0.58142844  0.88943599  0.84216190  1
  F  F15  1  0.11056401  0.69199244  0.84216190  1
  F  F16  1  0.30800756  0.41857156  0.84216190  1
  F  F17  1  0.11056401  0.41857156  0.15783810  1
  F  F18  1  0.30800756  0.88943599  0.15783810  1
  F  F19  1  0.58142844  0.69199244  0.15783810  1
  F  F20  1  0.00000000  0.00000000  0.50000000  1
  Li  Li21  1  0.66666667  0.33333333  0.00000000  1
  Li  Li22  1  0.63060998  0.57491512  0.12943534  1
  Li  Li23  1  -0.57491512  0.05569487  0.12943534  1
  Li  Li24  1  -0.05569487  -0.63060998  0.12943534  1
  Li  Li25  1  -0.57491512  -0.63060998  -0.12943534  1
  Li  Li26  1  -0.05569487  0.57491512  -0.12943534  1
  Li  Li27  1  0.63060998  0.05569487  -0.12943534  1
  Li  Li28  1  0.33333333  0.66666667  0.00000000  1
  Li  Li29  1  0.00000000  0.00000000  0.00000000  1
  Li  Li30  1  0.20487146  0.68082233  0.36594541  1
  Li  Li31  1  0.31917767  0.52404913  0.36594541  1
  Li  Li32  1  0.47595087  0.79512854  0.36594541  1
  Li  Li33  1  0.31917767  0.79512854  0.63405459  1
  Li  Li34  1  0.47595087  0.68082233  0.63405459  1
  Li  Li35  1  0.20487146  0.52404913  0.63405459  1
  Li  Li36  1  0.07942147  0.45370561  0.85366715  1
  Li  Li37  1  0.54629439  0.62571586  0.85366715  1
  Li  Li38  1  0.37428414  0.92057853  0.85366715  1
  Li  Li39  1  0.54629439  0.92057853  0.14633285  1
  Li  Li40  1  0.37428414  0.45370561  0.14633285  1
  Li  Li41  1  0.07942147  0.62571586  0.14633285  1
