# generated using pymatgen
data_LiF
_symmetry_space_group_name_H-M   'P 1'
_cell_length_a   6.49669393
_cell_length_b   9.94360488
_cell_length_c   5.25746057
_cell_angle_alpha   90.00000000
_cell_angle_beta   90.00000000
_cell_angle_gamma   90.00000000
_symmetry_Int_Tables_number   1
_chemical_formula_structural   LiF
_chemical_formula_sum   'Li16 F16'
_cell_volume   339.63488355
_cell_formula_units_Z   16
loop_
 _symmetry_equiv_pos_site_id
 _symmetry_equiv_pos_as_xyz
  1  'x, y, z'
loop_
 _atom_site_type_symbol
 _atom_site_label
 _atom_site_symmetry_multiplicity
 _atom_site_fract_x
 _atom_site_fract_y
 _atom_site_fract_z
 _atom_site_occupancy
  F  F0  1  0.08020272  0.60817403  0.24992777  1
  F  F1  1  0.41979728  0.39182597  0.74992777  1
  F  F2  1  0.91979728  0.10817403  0.75007223  1
  F  F3  1  0.58020272  0.89182597  0.25007223  1
  F  F4  1  0.91979728  0.39182597  0.75007223  1
  F  F5  1  0.58020272  0.60817403  0.25007223  1
  F  F6  1  0.08020272  0.89182597  0.24992777  1
  F  F7  1  0.41979728  0.10817403  0.74992777  1
  F  F8  1  0.81835439  0.42179781  0.21859511  1
  F  F9  1  0.68164561  0.57820219  0.71859511  1
  F  F10  1  0.18164561  0.92179781  0.78140489  1
  F  F11  1  0.31835439  0.07820219  0.28140489  1
  F  F12  1  0.18164561  0.57820219  0.78140489  1
  F  F13  1  0.31835439  0.42179781  0.28140489  1
  F  F14  1  0.81835439  0.07820219  0.21859511  1
  F  F15  1  0.68164561  0.92179781  0.71859511  1
  Li  Li16  1  0.00000000  0.00000000  0.50000000  1
  Li  Li17  1  0.50000000  0.00000000  0.00000000  1
  Li  Li18  1  0.00000000  0.50000000  0.50000000  1
  Li  Li19  1  0.50000000  0.50000000  0.00000000  1
  Li  Li20  1  0.18019564  0.12852831  0.93071996  1
  Li  Li21  1  0.31980436  -0.12852831  1.43071996  1
  Li  Li22  1  -0.18019564  0.62852831  -0.93071996  1
  Li  Li23  1  0.68019564  0.37147169  -0.43071996  1
  Li  Li24  1  -0.18019564  -0.12852831  -0.93071996  1
  Li  Li25  1  0.68019564  0.12852831  -0.43071996  1
  Li  Li26  1  0.18019564  0.37147169  0.93071996  1
  Li  Li27  1  0.31980436  0.62852831  1.43071996  1
  Li  Li28  1  0.18701837  0.25000000  0.13871801  1
  Li  Li29  1  0.31298163  0.75000000  0.63871801  1
  Li  Li30  1  0.81298163  0.75000000  0.86128199  1
  Li  Li31  1  0.68701837  0.25000000  0.36128199  1
