# generated using pymatgen
data_LiY2Te4P3
_symmetry_space_group_name_H-M   'P 1'
_cell_length_a   5.45810883
_cell_length_b   5.44927334
_cell_length_c   7.20683293
_cell_angle_alpha   94.00427389
_cell_angle_beta   98.72047605
_cell_angle_gamma   106.08357674
_symmetry_Int_Tables_number   1
_chemical_formula_structural   LiY2Te4P3
_chemical_formula_sum   'Li1 Y2 Te4 P3'
_cell_volume   202.16364615
_cell_formula_units_Z   1
loop_
 _symmetry_equiv_pos_site_id
 _symmetry_equiv_pos_as_xyz
  1  'x, y, z'
loop_
 _atom_site_type_symbol
 _atom_site_label
 _atom_site_symmetry_multiplicity
 _atom_site_fract_x
 _atom_site_fract_y
 _atom_site_fract_z
 _atom_site_occupancy
  Te  Te0  1  0.12500000  0.00000000  0.25000000  1
  Te  Te1  1  0.00000000  0.00000000  0.00000000  1
  Te  Te2  1  0.37500000  0.00000000  0.25000000  1
  Te  Te3  1  0.25000000  0.25000000  0.25000000  1
  Y  Y4  1  0.00000000  0.25000000  0.12500000  1
  Y  Y5  1  0.57884396  0.79870515  0.45310253  1
  P  P6  1  0.26538424  0.05611120  0.19468365  1
  P  P7  1  0.17456244  0.34046966  0.27943993  1
  P  P8  1  0.28614151  0.00116237  0.44789331  1
  Li  Li9  1  0.63520116  0.48674178  0.79799077  1
