# generated using pymatgen
data_Li2Si4Te3F12
_symmetry_space_group_name_H-M   'P 1'
_cell_length_a   10.07246201
_cell_length_b   10.07246201
_cell_length_c   9.20741292
_cell_angle_alpha   90.00000000
_cell_angle_beta   90.00000000
_cell_angle_gamma   90.00000000
_symmetry_Int_Tables_number   1
_chemical_formula_structural   Li2Si4Te3F12
_chemical_formula_sum   'Li8 Si16 Te12 F48'
_cell_volume   934.13339016
_cell_formula_units_Z   4
loop_
 _symmetry_equiv_pos_site_id
 _symmetry_equiv_pos_as_xyz
  1  'x, y, z'
loop_
 _atom_site_type_symbol
 _atom_site_label
 _atom_site_symmetry_multiplicity
 _atom_site_fract_x
 _atom_site_fract_y
 _atom_site_fract_z
 _atom_site_occupancy
  F  F0  1  0.05999858  0.90509486  0.76335498  1
  F  F1  1  0.44000142  -0.90509486  1.26335498  1
  F  F2  1  -0.65509486  0.80999858  1.01335498  1
  F  F3  1  1.15509486  0.19000142  1.51335498  1
  F  F4  1  0.44000142  0.90509486  -0.26335498  1
  F  F5  1  0.05999858  -0.90509486  -0.76335498  1
  F  F6  1  1.15509486  0.80999858  -0.51335498  1
  F  F7  1  -0.65509486  0.19000142  -0.01335498  1
  F  F8  1  -0.05999858  -0.90509486  -0.76335498  1
  F  F9  1  0.55999858  0.90509486  -0.26335498  1
  F  F10  1  1.65509486  0.19000142  -0.01335498  1
  F  F11  1  -0.15509486  0.80999858  -0.51335498  1
  F  F12  1  0.55999858  -0.90509486  1.26335498  1
  F  F13  1  -0.05999858  0.90509486  0.76335498  1
  F  F14  1  -0.15509486  0.19000142  1.51335498  1
  F  F15  1  1.65509486  0.80999858  1.01335498  1
  F  F16  1  0.55999858  1.40509486  1.26335498  1
  F  F17  1  0.94000142  -0.40509486  1.76335498  1
  F  F18  1  -0.15509486  1.30999858  1.51335498  1
  F  F19  1  1.65509486  0.69000142  2.01335498  1
  F  F20  1  0.94000142  1.40509486  0.23664502  1
  F  F21  1  0.55999858  -0.40509486  -0.26335498  1
  F  F22  1  1.65509486  1.30999858  -0.01335498  1
  F  F23  1  -0.15509486  0.69000142  0.48664502  1
  F  F24  1  0.44000142  -0.40509486  -0.26335498  1
  F  F25  1  1.05999858  1.40509486  0.23664502  1
  F  F26  1  2.15509486  0.69000142  0.48664502  1
  F  F27  1  0.34490514  1.30999858  -0.01335498  1
  F  F28  1  1.05999858  -0.40509486  1.76335498  1
  F  F29  1  0.44000142  1.40509486  1.26335498  1
  F  F30  1  0.34490514  0.69000142  2.01335498  1
  F  F31  1  2.15509486  1.30999858  1.51335498  1
  F  F32  1  0.00000000  0.55826214  0.63310714  1
  F  F33  1  0.50000000  0.44173786  0.13310714  1
  F  F34  1  0.69173786  0.75000000  0.88310714  1
  F  F35  1  0.80826214  0.25000000  0.38310714  1
  F  F36  1  0.50000000  0.55826214  0.86689286  1
  F  F37  1  0.00000000  0.44173786  0.36689286  1
  F  F38  1  0.80826214  0.75000000  0.61689286  1
  F  F39  1  0.69173786  0.25000000  0.11689286  1
  F  F40  1  0.50000000  0.05826214  0.13310714  1
  F  F41  1  0.00000000  0.94173786  0.63310714  1
  F  F42  1  0.19173786  0.25000000  0.38310714  1
  F  F43  1  0.30826214  0.75000000  0.88310714  1
  F  F44  1  0.00000000  0.05826214  0.36689286  1
  F  F45  1  0.50000000  0.94173786  0.86689286  1
  F  F46  1  0.30826214  0.25000000  0.11689286  1
  F  F47  1  0.19173786  0.75000000  0.61689286  1
  Li  Li48  1  0.00000000  0.25000000  0.19284054  1
  Li  Li49  1  0.00000000  0.75000000  0.44284054  1
  Li  Li50  1  0.50000000  0.25000000  0.30715946  1
  Li  Li51  1  0.50000000  0.75000000  0.05715946  1
  Li  Li52  1  0.50000000  0.75000000  0.69284054  1
  Li  Li53  1  0.50000000  0.25000000  0.94284054  1
  Li  Li54  1  0.00000000  0.75000000  0.80715946  1
  Li  Li55  1  0.00000000  0.25000000  0.55715946  1
  Si  Si56  1  0.24276100  0.49276100  0.87500000  1
  Si  Si57  1  0.25723900  0.50723900  0.37500000  1
  Si  Si58  1  0.75723900  0.99276100  0.12500000  1
  Si  Si59  1  0.74276100  0.00723900  0.62500000  1
  Si  Si60  1  0.75723900  0.50723900  0.12500000  1
  Si  Si61  1  0.74276100  0.49276100  0.62500000  1
  Si  Si62  1  0.24276100  0.00723900  0.87500000  1
  Si  Si63  1  0.25723900  0.99276100  0.37500000  1
  Si  Si64  1  0.74276100  0.99276100  0.37500000  1
  Si  Si65  1  0.75723900  0.00723900  0.87500000  1
  Si  Si66  1  0.25723900  0.49276100  0.62500000  1
  Si  Si67  1  0.24276100  0.50723900  0.12500000  1
  Si  Si68  1  0.25723900  0.00723900  0.62500000  1
  Si  Si69  1  0.24276100  0.99276100  0.12500000  1
  Si  Si70  1  0.74276100  0.50723900  0.37500000  1
  Si  Si71  1  0.75723900  0.49276100  0.87500000  1
  Te  Te72  1  0.00000000  0.00000000  0.50000000  1
  Te  Te73  1  0.50000000  0.00000000  0.00000000  1
  Te  Te74  1  0.25000000  0.75000000  0.75000000  1
  Te  Te75  1  0.25000000  0.25000000  0.25000000  1
  Te  Te76  1  0.50000000  0.50000000  0.00000000  1
  Te  Te77  1  0.00000000  0.50000000  0.50000000  1
  Te  Te78  1  0.75000000  0.25000000  0.25000000  1
  Te  Te79  1  0.75000000  0.75000000  0.75000000  1
  Te  Te80  1  0.00000000  0.25000000  0.37500000  1
  Te  Te81  1  0.00000000  0.75000000  0.62500000  1
  Te  Te82  1  0.50000000  0.75000000  0.87500000  1
  Te  Te83  1  0.50000000  0.25000000  0.12500000  1
