# generated using pymatgen
data_LiF
_symmetry_space_group_name_H-M   'P 1'
_cell_length_a   9.00436189
_cell_length_b   9.00436189
_cell_length_c   5.02161324
_cell_angle_alpha   90.00000000
_cell_angle_beta   90.00000000
_cell_angle_gamma   120.00000000
_symmetry_Int_Tables_number   1
_chemical_formula_structural   LiF
_chemical_formula_sum   'Li16 F16'
_cell_volume   352.59794359
_cell_formula_units_Z   16
loop_
 _symmetry_equiv_pos_site_id
 _symmetry_equiv_pos_as_xyz
  1  'x, y, z'
loop_
 _atom_site_type_symbol
 _atom_site_label
 _atom_site_symmetry_multiplicity
 _atom_site_fract_x
 _atom_site_fract_y
 _atom_site_fract_z
 _atom_site_occupancy
  F  F0  1  0.02529612  0.84643694  0.64262691  1
  F  F1  1  -0.84643694  -0.82114082  0.64262691  1
  F  F2  1  0.82114082  -0.02529612  0.64262691  1
  F  F3  1  -0.02529612  -0.84643694  1.14262691  1
  F  F4  1  0.84643694  0.82114082  1.14262691  1
  F  F5  1  -0.82114082  0.02529612  1.14262691  1
  F  F6  1  -0.02529612  -0.84643694  -0.64262691  1
  F  F7  1  0.84643694  0.82114082  -0.64262691  1
  F  F8  1  -0.82114082  0.02529612  -0.64262691  1
  F  F9  1  0.02529612  0.84643694  -0.14262691  1
  F  F10  1  -0.84643694  -0.82114082  -0.14262691  1
  F  F11  1  0.82114082  -0.02529612  -0.14262691  1
  F  F12  1  0.33333333  0.66666667  0.25000000  1
  F  F13  1  0.66666667  0.33333333  0.75000000  1
  F  F14  1  0.00000000  0.00000000  0.00000000  1
  F  F15  1  0.00000000  0.00000000  0.50000000  1
  Li  Li16  1  0.90724707  0.34503533  0.25000000  1
  Li  Li17  1  0.65496467  0.56221173  0.25000000  1
  Li  Li18  1  0.43778827  0.09275293  0.25000000  1
  Li  Li19  1  0.09275293  0.65496467  0.75000000  1
  Li  Li20  1  0.34503533  0.43778827  0.75000000  1
  Li  Li21  1  0.56221173  0.90724707  0.75000000  1
  Li  Li22  1  0.66666667  0.33333333  0.25000000  1
  Li  Li23  1  0.33333333  0.66666667  0.75000000  1
  Li  Li24  1  0.19213831  0.45723622  0.25000000  1
  Li  Li25  1  0.54276378  0.73490209  0.25000000  1
  Li  Li26  1  0.26509791  0.80786169  0.25000000  1
  Li  Li27  1  0.80786169  0.54276378  0.75000000  1
  Li  Li28  1  0.45723622  0.26509791  0.75000000  1
  Li  Li29  1  0.73490209  0.19213831  0.75000000  1
  Li  Li30  1  0.00000000  0.00000000  0.25000000  1
  Li  Li31  1  0.00000000  0.00000000  0.75000000  1
