# generated using pymatgen
data_LiCaF3
_symmetry_space_group_name_H-M   'P 1'
_cell_length_a   5.49308205
_cell_length_b   5.49308205
_cell_length_c   40.78566712
_cell_angle_alpha   90.00000000
_cell_angle_beta   90.00000000
_cell_angle_gamma   120.00000000
_symmetry_Int_Tables_number   1
_chemical_formula_structural   LiCaF3
_chemical_formula_sum   'Li18 Ca18 F54'
_cell_volume   1065.78689277
_cell_formula_units_Z   18
loop_
 _symmetry_equiv_pos_site_id
 _symmetry_equiv_pos_as_xyz
  1  'x, y, z'
loop_
 _atom_site_type_symbol
 _atom_site_label
 _atom_site_symmetry_multiplicity
 _atom_site_fract_x
 _atom_site_fract_y
 _atom_site_fract_z
 _atom_site_occupancy
  Ca  Ca0  1  0.33333333  0.66666667  0.75658690  1
  Ca  Ca1  1  0.33333333  0.66666667  0.24341310  1
  Ca  Ca2  1  0.66666667  0.33333333  0.00000000  1
  Ca  Ca3  1  0.33333333  0.66666667  0.50000000  1
  Ca  Ca4  1  0.62537964  0.81054839  0.19778036  1
  Ca  Ca5  1  -0.81054839  -0.18516876  0.19778036  1
  Ca  Ca6  1  0.18516876  -0.62537964  0.19778036  1
  Ca  Ca7  1  -0.81054839  -0.62537964  -0.19778036  1
  Ca  Ca8  1  0.18516876  0.81054839  -0.19778036  1
  Ca  Ca9  1  0.62537964  -0.18516876  -0.19778036  1
  Ca  Ca10  1  0.33333333  0.66666667  0.64403190  1
  Ca  Ca11  1  0.33333333  0.66666667  0.35596810  1
  Ca  Ca12  1  0.00000000  0.00000000  0.50000000  1
  Ca  Ca13  1  0.00000000  0.00000000  0.00000000  1
  Ca  Ca14  1  0.52463108  0.47536892  0.50000000  1
  Ca  Ca15  1  0.52463108  0.04926216  0.50000000  1
  Ca  Ca16  1  0.95073784  0.47536892  0.50000000  1
  Ca  Ca17  1  0.33333333  0.66666667  0.00000000  1
  F  F18  1  0.08021788  0.09067148  0.24091500  1
  F  F19  1  0.90932852  0.98954641  0.24091500  1
  F  F20  1  0.01045359  0.91978212  0.24091500  1
  F  F21  1  0.90932852  0.91978212  0.75908500  1
  F  F22  1  0.01045359  0.09067148  0.75908500  1
  F  F23  1  0.08021788  0.98954641  0.75908500  1
  F  F24  1  0.80752486  0.21276729  0.05772420  1
  F  F25  1  0.78723271  0.59475757  0.05772420  1
  F  F26  1  0.40524243  0.19247514  0.05772420  1
  F  F27  1  0.78723271  0.19247514  0.94227580  1
  F  F28  1  0.40524243  0.21276729  0.94227580  1
  F  F29  1  0.80752486  0.59475757  0.94227580  1
  F  F30  1  0.79556470  0.97252241  0.96866694  1
  F  F31  1  0.02747759  0.82304229  0.96866694  1
  F  F32  1  0.17695771  0.20443530  0.96866694  1
  F  F33  1  0.02747759  0.20443530  0.03133306  1
  F  F34  1  0.17695771  0.97252241  0.03133306  1
  F  F35  1  0.79556470  0.82304229  0.03133306  1
  F  F36  1  0.33389403  0.79853243  0.56811519  1
  F  F37  1  0.20146757  0.53536159  0.56811519  1
  F  F38  1  0.46463841  0.66610597  0.56811519  1
  F  F39  1  0.20146757  0.66610597  0.43188481  1
  F  F40  1  0.46463841  0.79853243  0.43188481  1
  F  F41  1  0.33389403  0.53536159  0.43188481  1
  F  F42  1  0.56748870  0.37740948  0.57830043  1
  F  F43  1  0.62259052  0.19007922  0.57830043  1
  F  F44  1  0.80992078  0.43251130  0.57830043  1
  F  F45  1  0.62259052  0.43251130  0.42169957  1
  F  F46  1  0.80992078  0.37740948  0.42169957  1
  F  F47  1  0.56748870  0.19007922  0.42169957  1
  F  F48  1  0.94296756  0.76216296  0.54180425  1
  F  F49  1  0.23783704  0.18080460  0.54180425  1
  F  F50  1  0.81919540  0.05703244  0.54180425  1
  F  F51  1  0.23783704  0.05703244  0.45819575  1
  F  F52  1  0.81919540  0.76216296  0.45819575  1
  F  F53  1  0.94296756  0.18080460  0.45819575  1
  F  F54  1  0.97333054  0.38018544  0.06611698  1
  F  F55  1  0.61981456  0.59314510  0.06611698  1
  F  F56  1  0.40685490  0.02666946  0.06611698  1
  F  F57  1  0.61981456  0.02666946  0.93388302  1
  F  F58  1  0.40685490  0.38018544  0.93388302  1
  F  F59  1  0.97333054  0.59314510  0.93388302  1
  F  F60  1  0.80215516  0.23721461  0.90578704  1
  F  F61  1  0.76278539  0.56494055  0.90578704  1
  F  F62  1  0.43505945  0.19784484  0.90578704  1
  F  F63  1  0.76278539  0.19784484  0.09421296  1
  F  F64  1  0.43505945  0.23721461  0.09421296  1
  F  F65  1  0.80215516  0.56494055  0.09421296  1
  F  F66  1  0.09259634  0.08424667  0.88395990  1
  F  F67  1  0.91575333  0.00834968  0.88395990  1
  F  F68  1  0.99165032  0.90740366  0.88395990  1
  F  F69  1  0.91575333  0.90740366  0.11604010  1
  F  F70  1  0.99165032  0.08424667  0.11604010  1
  F  F71  1  0.09259634  0.00834968  0.11604010  1
  Li  Li72  1  0.41796610  0.88452651  0.08294855  1
  Li  Li73  1  0.11547349  0.53343959  0.08294855  1
  Li  Li74  1  0.46656041  0.58203390  0.08294855  1
  Li  Li75  1  0.11547349  0.58203390  0.91705145  1
  Li  Li76  1  0.46656041  0.88452651  0.91705145  1
  Li  Li77  1  0.41796610  0.53343959  0.91705145  1
  Li  Li78  1  0.89442347  0.73652635  0.10682388  1
  Li  Li79  1  0.26347365  0.15789712  0.10682388  1
  Li  Li80  1  0.84210288  0.10557653  0.10682388  1
  Li  Li81  1  0.26347365  0.10557653  0.89317612  1
  Li  Li82  1  0.84210288  0.73652635  0.89317612  1
  Li  Li83  1  0.89442347  0.15789712  0.89317612  1
  Li  Li84  1  0.66666667  0.33333333  0.51713698  1
  Li  Li85  1  0.66666667  0.33333333  0.48286302  1
  Li  Li86  1  0.00000000  0.00000000  0.83728679  1
  Li  Li87  1  0.00000000  0.00000000  0.16271321  1
  Li  Li88  1  0.66666667  0.33333333  0.27300943  1
  Li  Li89  1  0.66666667  0.33333333  0.72699057  1
