# generated using pymatgen
data_LiF
_symmetry_space_group_name_H-M   'P 1'
_cell_length_a   10.03936067
_cell_length_b   10.03936067
_cell_length_c   3.90916416
_cell_angle_alpha   90.00000000
_cell_angle_beta   90.00000000
_cell_angle_gamma   120.00000000
_symmetry_Int_Tables_number   1
_chemical_formula_structural   LiF
_chemical_formula_sum   'Li22 F22'
_cell_volume   341.21385228
_cell_formula_units_Z   22
loop_
 _symmetry_equiv_pos_site_id
 _symmetry_equiv_pos_as_xyz
  1  'x, y, z'
loop_
 _atom_site_type_symbol
 _atom_site_label
 _atom_site_symmetry_multiplicity
 _atom_site_fract_x
 _atom_site_fract_y
 _atom_site_fract_z
 _atom_site_occupancy
  F  F0  1  0.57217633  0.59996807  0.25000000  1
  F  F1  1  -0.59996807  -0.02779174  0.25000000  1
  F  F2  1  0.02779174  -0.57217633  0.25000000  1
  F  F3  1  -0.57217633  -0.59996807  0.75000000  1
  F  F4  1  0.59996807  0.02779174  0.75000000  1
  F  F5  1  -0.02779174  0.57217633  0.75000000  1
  F  F6  1  0.59996807  0.57217633  0.75000000  1
  F  F7  1  -0.02779174  -0.59996807  0.75000000  1
  F  F8  1  -0.57217633  0.02779174  0.75000000  1
  F  F9  1  -0.59996807  -0.57217633  0.25000000  1
  F  F10  1  0.02779174  0.59996807  0.25000000  1
  F  F11  1  0.57217633  -0.02779174  0.25000000  1
  F  F12  1  0.00000000  0.00000000  0.00000000  1
  F  F13  1  0.00000000  0.00000000  0.50000000  1
  F  F14  1  0.80383928  0.60767855  0.25000000  1
  F  F15  1  0.39232145  0.19616072  0.25000000  1
  F  F16  1  0.80383928  0.19616072  0.25000000  1
  F  F17  1  0.19616072  0.39232145  0.75000000  1
  F  F18  1  0.60767855  0.80383928  0.75000000  1
  F  F19  1  0.19616072  0.80383928  0.75000000  1
  F  F20  1  0.33333333  0.66666667  0.75000000  1
  F  F21  1  0.66666667  0.33333333  0.25000000  1
  Li  Li22  1  0.57677164  0.15354327  0.99786272  1
  Li  Li23  1  0.84645673  0.42322836  0.99786272  1
  Li  Li24  1  0.57677164  0.42322836  0.99786272  1
  Li  Li25  1  0.42322836  0.84645673  0.49786272  1
  Li  Li26  1  0.15354327  0.57677164  0.49786272  1
  Li  Li27  1  0.42322836  0.57677164  0.49786272  1
  Li  Li28  1  0.15354327  0.57677164  0.00213728  1
  Li  Li29  1  0.42322836  0.84645673  0.00213728  1
  Li  Li30  1  0.42322836  0.57677164  0.00213728  1
  Li  Li31  1  0.84645673  0.42322836  0.50213728  1
  Li  Li32  1  0.57677164  0.15354327  0.50213728  1
  Li  Li33  1  0.57677164  0.42322836  0.50213728  1
  Li  Li34  1  0.50000000  0.00000000  0.00000000  1
  Li  Li35  1  0.00000000  0.50000000  0.00000000  1
  Li  Li36  1  0.50000000  0.50000000  0.00000000  1
  Li  Li37  1  0.50000000  0.00000000  0.50000000  1
  Li  Li38  1  0.00000000  0.50000000  0.50000000  1
  Li  Li39  1  0.50000000  0.50000000  0.50000000  1
  Li  Li40  1  0.33333333  0.66666667  0.25000000  1
  Li  Li41  1  0.66666667  0.33333333  0.75000000  1
  Li  Li42  1  0.00000000  0.00000000  0.25000000  1
  Li  Li43  1  0.00000000  0.00000000  0.75000000  1
