# generated using pymatgen
data_LiF
_symmetry_space_group_name_H-M   'P 1'
_cell_length_a   5.77122288
_cell_length_b   5.93546637
_cell_length_c   13.84929766
_cell_angle_alpha   90.00000000
_cell_angle_beta   90.00000000
_cell_angle_gamma   90.00000000
_symmetry_Int_Tables_number   1
_chemical_formula_structural   LiF
_chemical_formula_sum   'Li28 F28'
_cell_volume   474.40629685
_cell_formula_units_Z   28
loop_
 _symmetry_equiv_pos_site_id
 _symmetry_equiv_pos_as_xyz
  1  'x, y, z'
loop_
 _atom_site_type_symbol
 _atom_site_label
 _atom_site_symmetry_multiplicity
 _atom_site_fract_x
 _atom_site_fract_y
 _atom_site_fract_z
 _atom_site_occupancy
  F  F0  1  0.00000000  0.00000000  0.50000000  1
  F  F1  1  0.50000000  0.50000000  0.50000000  1
  F  F2  1  0.15198180  0.80590372  0.00000000  1
  F  F3  1  0.84801820  0.19409628  -0.00000000  1
  F  F4  1  0.34801820  0.30590372  -0.00000000  1
  F  F5  1  0.65198180  0.69409628  0.00000000  1
  F  F6  1  0.55836686  0.69628987  0.62102967  1
  F  F7  1  0.44163314  0.30371013  0.62102967  1
  F  F8  1  0.94163314  0.19628987  0.37897033  1
  F  F9  1  0.05836686  0.80371013  0.37897033  1
  F  F10  1  0.44163314  0.30371013  0.37897033  1
  F  F11  1  0.55836686  0.69628987  0.37897033  1
  F  F12  1  0.05836686  0.80371013  0.62102967  1
  F  F13  1  0.94163314  0.19628987  0.62102967  1
  F  F14  1  0.47844452  0.58822419  0.08821964  1
  F  F15  1  0.52155548  0.41177581  0.08821964  1
  F  F16  1  0.02155548  0.08822419  0.91178036  1
  F  F17  1  0.97844452  0.91177581  0.91178036  1
  F  F18  1  0.52155548  0.41177581  0.91178036  1
  F  F19  1  0.47844452  0.58822419  0.91178036  1
  F  F20  1  0.97844452  0.91177581  0.08821964  1
  F  F21  1  0.02155548  0.08822419  0.08821964  1
  F  F22  1  0.18061610  0.37936274  0.50000000  1
  F  F23  1  0.81938390  0.62063726  0.50000000  1
  F  F24  1  0.31938390  0.87936274  0.50000000  1
  F  F25  1  0.68061610  0.12063726  0.50000000  1
  F  F26  1  0.00000000  0.50000000  0.00000000  1
  F  F27  1  0.50000000  0.00000000  0.00000000  1
  Li  Li28  1  0.61713206  0.00010908  0.92102895  1
  Li  Li29  1  -0.61713206  -0.00010908  0.92102895  1
  Li  Li30  1  -0.11713206  0.50010908  -0.92102895  1
  Li  Li31  1  1.11713206  0.49989092  -0.92102895  1
  Li  Li32  1  -0.61713206  -0.00010908  -0.92102895  1
  Li  Li33  1  0.61713206  0.00010908  -0.92102895  1
  Li  Li34  1  1.11713206  0.49989092  0.92102895  1
  Li  Li35  1  -0.11713206  0.50010908  0.92102895  1
  Li  Li36  1  0.64528514  0.96137811  0.26567195  1
  Li  Li37  1  0.35471486  0.03862189  0.26567195  1
  Li  Li38  1  0.85471486  0.46137811  0.73432805  1
  Li  Li39  1  0.14528514  0.53862189  0.73432805  1
  Li  Li40  1  0.35471486  0.03862189  0.73432805  1
  Li  Li41  1  0.64528514  0.96137811  0.73432805  1
  Li  Li42  1  0.14528514  0.53862189  0.26567195  1
  Li  Li43  1  0.85471486  0.46137811  0.26567195  1
  Li  Li44  1  0.55689268  0.35268621  0.70388123  1
  Li  Li45  1  0.44310732  0.64731379  0.70388123  1
  Li  Li46  1  0.94310732  0.85268621  0.29611877  1
  Li  Li47  1  0.05689268  0.14731379  0.29611877  1
  Li  Li48  1  0.44310732  0.64731379  0.29611877  1
  Li  Li49  1  0.55689268  0.35268621  0.29611877  1
  Li  Li50  1  0.05689268  0.14731379  0.70388123  1
  Li  Li51  1  0.94310732  0.85268621  0.70388123  1
  Li  Li52  1  0.00000000  0.50000000  0.50000000  1
  Li  Li53  1  0.50000000  0.00000000  0.50000000  1
  Li  Li54  1  0.00000000  0.00000000  0.00000000  1
  Li  Li55  1  0.50000000  0.50000000  0.00000000  1
