# generated using pymatgen
data_LiF
_symmetry_space_group_name_H-M   'P 1'
_cell_length_a   7.07123912
_cell_length_b   13.59509240
_cell_length_c   10.56946064
_cell_angle_alpha   90.00000000
_cell_angle_beta   90.00000000
_cell_angle_gamma   90.00000000
_symmetry_Int_Tables_number   1
_chemical_formula_structural   LiF
_chemical_formula_sum   'Li32 F32'
_cell_volume   1016.08610567
_cell_formula_units_Z   32
loop_
 _symmetry_equiv_pos_site_id
 _symmetry_equiv_pos_as_xyz
  1  'x, y, z'
loop_
 _atom_site_type_symbol
 _atom_site_label
 _atom_site_symmetry_multiplicity
 _atom_site_fract_x
 _atom_site_fract_y
 _atom_site_fract_z
 _atom_site_occupancy
  F  F0  1  0.61583553  0.51646256  0.29579735  1
  F  F1  1  0.13416447  0.23353744  0.29579735  1
  F  F2  1  0.13416447  0.51646256  0.45420265  1
  F  F3  1  0.61583553  0.23353744  0.45420265  1
  F  F4  1  0.38416447  0.48353744  0.70420265  1
  F  F5  1  0.86583553  0.76646256  0.70420265  1
  F  F6  1  0.86583553  0.48353744  0.54579735  1
  F  F7  1  0.38416447  0.76646256  0.54579735  1
  F  F8  1  0.61583553  0.01646256  0.79579735  1
  F  F9  1  0.13416447  0.73353744  0.79579735  1
  F  F10  1  0.13416447  0.01646256  0.95420265  1
  F  F11  1  0.61583553  0.73353744  0.95420265  1
  F  F12  1  0.38416447  0.98353744  0.20420265  1
  F  F13  1  0.86583553  0.26646256  0.20420265  1
  F  F14  1  0.86583553  0.98353744  0.04579735  1
  F  F15  1  0.38416447  0.26646256  0.04579735  1
  F  F16  1  0.11583553  0.51646256  0.79579735  1
  F  F17  1  0.63416447  0.23353744  0.79579735  1
  F  F18  1  0.63416447  0.51646256  0.95420265  1
  F  F19  1  0.11583553  0.23353744  0.95420265  1
  F  F20  1  0.88416447  0.48353744  0.20420265  1
  F  F21  1  0.36583553  0.76646256  0.20420265  1
  F  F22  1  0.36583553  0.48353744  0.04579735  1
  F  F23  1  0.88416447  0.76646256  0.04579735  1
  F  F24  1  0.11583553  0.01646256  0.29579735  1
  F  F25  1  0.63416447  0.73353744  0.29579735  1
  F  F26  1  0.63416447  0.01646256  0.45420265  1
  F  F27  1  0.11583553  0.73353744  0.45420265  1
  F  F28  1  0.88416447  0.98353744  0.70420265  1
  F  F29  1  0.36583553  0.26646256  0.70420265  1
  F  F30  1  0.36583553  0.98353744  0.54579735  1
  F  F31  1  0.88416447  0.26646256  0.54579735  1
  Li  Li32  1  0.53587724  0.76337592  0.83189755  1
  Li  Li33  1  0.21412276  -0.01337592  0.83189755  1
  Li  Li34  1  0.21412276  0.76337592  -0.08189755  1
  Li  Li35  1  0.53587724  -0.01337592  -0.08189755  1
  Li  Li36  1  -0.53587724  -0.76337592  -0.83189755  1
  Li  Li37  1  0.78587724  1.01337592  -0.83189755  1
  Li  Li38  1  0.78587724  -0.76337592  1.08189755  1
  Li  Li39  1  -0.53587724  1.01337592  1.08189755  1
  Li  Li40  1  0.53587724  1.26337592  1.33189755  1
  Li  Li41  1  0.21412276  0.48662408  1.33189755  1
  Li  Li42  1  0.21412276  1.26337592  0.41810245  1
  Li  Li43  1  0.53587724  0.48662408  0.41810245  1
  Li  Li44  1  -0.53587724  -0.26337592  -0.33189755  1
  Li  Li45  1  0.78587724  1.51337592  -0.33189755  1
  Li  Li46  1  0.78587724  -0.26337592  1.58189755  1
  Li  Li47  1  -0.53587724  1.51337592  1.58189755  1
  Li  Li48  1  1.03587724  0.76337592  1.33189755  1
  Li  Li49  1  0.71412276  -0.01337592  1.33189755  1
  Li  Li50  1  0.71412276  0.76337592  0.41810245  1
  Li  Li51  1  1.03587724  -0.01337592  0.41810245  1
  Li  Li52  1  -0.03587724  -0.76337592  -0.33189755  1
  Li  Li53  1  1.28587724  1.01337592  -0.33189755  1
  Li  Li54  1  1.28587724  -0.76337592  1.58189755  1
  Li  Li55  1  -0.03587724  1.01337592  1.58189755  1
  Li  Li56  1  1.03587724  1.26337592  0.83189755  1
  Li  Li57  1  0.71412276  0.48662408  0.83189755  1
  Li  Li58  1  0.71412276  1.26337592  -0.08189755  1
  Li  Li59  1  1.03587724  0.48662408  -0.08189755  1
  Li  Li60  1  -0.03587724  -0.26337592  -0.83189755  1
  Li  Li61  1  1.28587724  1.51337592  -0.83189755  1
  Li  Li62  1  1.28587724  -0.26337592  1.08189755  1
  Li  Li63  1  -0.03587724  1.51337592  1.08189755  1
