# generated using pymatgen
data_LiF
_symmetry_space_group_name_H-M   'P 1'
_cell_length_a   8.69641798
_cell_length_b   9.31755971
_cell_length_c   7.53931832
_cell_angle_alpha   90.00000000
_cell_angle_beta   90.00000000
_cell_angle_gamma   90.00000000
_symmetry_Int_Tables_number   1
_chemical_formula_structural   LiF
_chemical_formula_sum   'Li24 F24'
_cell_volume   610.90639254
_cell_formula_units_Z   24
loop_
 _symmetry_equiv_pos_site_id
 _symmetry_equiv_pos_as_xyz
  1  'x, y, z'
loop_
 _atom_site_type_symbol
 _atom_site_label
 _atom_site_symmetry_multiplicity
 _atom_site_fract_x
 _atom_site_fract_y
 _atom_site_fract_z
 _atom_site_occupancy
  F  F0  1  0.00000000  0.00000000  0.00000000  1
  F  F1  1  0.50000000  0.00000000  0.50000000  1
  F  F2  1  0.00000000  0.50000000  0.00000000  1
  F  F3  1  0.50000000  0.50000000  0.50000000  1
  F  F4  1  0.46947047  0.25000000  0.13982040  1
  F  F5  1  0.03052953  0.75000000  0.63982040  1
  F  F6  1  0.53052953  0.75000000  0.86017960  1
  F  F7  1  0.96947047  0.25000000  0.36017960  1
  F  F8  1  0.57750157  0.25000000  0.48126854  1
  F  F9  1  0.92249843  0.75000000  0.98126854  1
  F  F10  1  0.42249843  0.75000000  0.51873146  1
  F  F11  1  0.07750157  0.25000000  0.01873146  1
  F  F12  1  0.37144570  0.85998296  0.05314548  1
  F  F13  1  0.12855430  0.14001704  0.55314548  1
  F  F14  1  0.62855430  0.35998296  0.94685452  1
  F  F15  1  0.87144570  0.64001704  0.44685452  1
  F  F16  1  0.62855430  0.14001704  0.94685452  1
  F  F17  1  0.87144570  0.85998296  0.44685452  1
  F  F18  1  0.37144570  0.64001704  0.05314548  1
  F  F19  1  0.12855430  0.35998296  0.55314548  1
  F  F20  1  0.65390650  0.25000000  0.50762073  1
  F  F21  1  0.84609350  0.75000000  0.00762073  1
  F  F22  1  0.34609350  0.75000000  0.49237927  1
  F  F23  1  0.15390650  0.25000000  0.99237927  1
  Li  Li24  1  0.65405360  0.17154333  0.64658974  1
  Li  Li25  1  -0.15405360  -0.17154333  1.14658974  1
  Li  Li26  1  -0.65405360  0.67154333  -0.64658974  1
  Li  Li27  1  1.15405360  0.32845667  -0.14658974  1
  Li  Li28  1  -0.65405360  -0.17154333  -0.64658974  1
  Li  Li29  1  1.15405360  0.17154333  -0.14658974  1
  Li  Li30  1  0.65405360  0.32845667  0.64658974  1
  Li  Li31  1  -0.15405360  0.67154333  1.14658974  1
  Li  Li32  1  0.18811875  0.99856317  0.53463524  1
  Li  Li33  1  0.31188125  0.00143683  0.03463524  1
  Li  Li34  1  0.81188125  0.49856317  0.46536476  1
  Li  Li35  1  0.68811875  0.50143683  0.96536476  1
  Li  Li36  1  0.81188125  0.00143683  0.46536476  1
  Li  Li37  1  0.68811875  0.99856317  0.96536476  1
  Li  Li38  1  0.18811875  0.50143683  0.53463524  1
  Li  Li39  1  0.31188125  0.49856317  0.03463524  1
  Li  Li40  1  0.00000000  0.00000000  0.50000000  1
  Li  Li41  1  0.50000000  0.00000000  0.00000000  1
  Li  Li42  1  0.00000000  0.50000000  0.50000000  1
  Li  Li43  1  0.50000000  0.50000000  0.00000000  1
  Li  Li44  1  0.81815834  0.25000000  0.52106032  1
  Li  Li45  1  0.68184166  0.75000000  0.02106032  1
  Li  Li46  1  0.18184166  0.75000000  0.47893968  1
  Li  Li47  1  0.31815834  0.25000000  0.97893968  1
