# generated using pymatgen
data_LiYP2
_symmetry_space_group_name_H-M   'P 1'
_cell_length_a   3.77224530
_cell_length_b   4.04732184
_cell_length_c   6.70270450
_cell_angle_alpha   96.91463650
_cell_angle_beta   105.05864076
_cell_angle_gamma   117.77334663
_symmetry_Int_Tables_number   1
_chemical_formula_structural   LiYP2
_chemical_formula_sum   'Li2 Y2 P4'
_cell_volume   83.87123336
_cell_formula_units_Z   2
loop_
 _symmetry_equiv_pos_site_id
 _symmetry_equiv_pos_as_xyz
  1  'x, y, z'
loop_
 _atom_site_type_symbol
 _atom_site_label
 _atom_site_symmetry_multiplicity
 _atom_site_fract_x
 _atom_site_fract_y
 _atom_site_fract_z
 _atom_site_occupancy
  Y  Y0  1  0.12500000  0.12500000  0.12500000  1
  Y  Y1  1  0.50000000  0.50000000  0.50000000  1
  P  P2  1  0.25000000  0.25000000  0.25000000  1
  P  P3  1  0.75000000  0.75000000  0.75000000  1
  P  P4  1  0.33600648  0.74829631  0.91778398  1
  P  P5  1  0.45961196  0.84208508  0.30404404  1
  Li  Li6  1  0.69815503  0.45310255  0.50145023  1
  Li  Li7  1  0.84653888  0.85320788  0.37207967  1
