# generated using pymatgen
data_LiF
_symmetry_space_group_name_H-M   'P 1'
_cell_length_a   6.86137931
_cell_length_b   6.86137931
_cell_length_c   7.59568519
_cell_angle_alpha   90.00000000
_cell_angle_beta   90.00000000
_cell_angle_gamma   120.00000000
_symmetry_Int_Tables_number   1
_chemical_formula_structural   LiF
_chemical_formula_sum   'Li17 F17'
_cell_volume   309.68519683
_cell_formula_units_Z   17
loop_
 _symmetry_equiv_pos_site_id
 _symmetry_equiv_pos_as_xyz
  1  'x, y, z'
loop_
 _atom_site_type_symbol
 _atom_site_label
 _atom_site_symmetry_multiplicity
 _atom_site_fract_x
 _atom_site_fract_y
 _atom_site_fract_z
 _atom_site_occupancy
  F  F0  1  0.36333747  0.24751803  0.24222218  1
  F  F1  1  0.75248197  0.11581943  0.24222218  1
  F  F2  1  0.88418057  0.63666253  0.24222218  1
  F  F3  1  0.75248197  0.63666253  0.75777782  1
  F  F4  1  0.88418057  0.24751803  0.75777782  1
  F  F5  1  0.36333747  0.11581943  0.75777782  1
  F  F6  1  0.00000000  0.00000000  0.36948383  1
  F  F7  1  0.00000000  0.00000000  0.63051617  1
  F  F8  1  0.06022650  0.12169672  0.10871450  1
  F  F9  1  0.87830328  0.93852978  0.10871450  1
  F  F10  1  0.06147022  0.93977350  0.10871450  1
  F  F11  1  0.87830328  0.93977350  0.89128550  1
  F  F12  1  0.06147022  0.12169672  0.89128550  1
  F  F13  1  0.06022650  0.93852978  0.89128550  1
  F  F14  1  0.33333333  0.66666667  0.00000000  1
  F  F15  1  0.66666667  0.33333333  0.80956908  1
  F  F16  1  0.66666667  0.33333333  0.19043092  1
  Li  Li17  1  0.62573966  0.00432192  0.51639303  1
  Li  Li18  1  -0.00432192  0.62141774  0.51639303  1
  Li  Li19  1  -0.62141774  -0.62573966  0.51639303  1
  Li  Li20  1  -0.00432192  -0.62573966  -0.51639303  1
  Li  Li21  1  -0.62141774  0.00432192  -0.51639303  1
  Li  Li22  1  0.62573966  0.62141774  -0.51639303  1
  Li  Li23  1  0.00000000  0.00000000  0.22409974  1
  Li  Li24  1  0.00000000  0.00000000  0.77590026  1
  Li  Li25  1  0.00000000  0.00000000  0.50000000  1
  Li  Li26  1  0.73177836  0.81691200  0.16065852  1
  Li  Li27  1  0.18308800  0.91486636  0.16065852  1
  Li  Li28  1  0.08513364  0.26822164  0.16065852  1
  Li  Li29  1  0.18308800  0.26822164  0.83934148  1
  Li  Li30  1  0.08513364  0.81691200  0.83934148  1
  Li  Li31  1  0.73177836  0.91486636  0.83934148  1
  Li  Li32  1  0.66666667  0.33333333  -0.00000000  1
  Li  Li33  1  0.66666667  0.33333333  0.50000000  1
