# generated using pymatgen
data_LiF
_symmetry_space_group_name_H-M   'P 1'
_cell_length_a   7.00476448
_cell_length_b   8.05075673
_cell_length_c   9.35849989
_cell_angle_alpha   90.00000000
_cell_angle_beta   90.00000000
_cell_angle_gamma   90.00000000
_symmetry_Int_Tables_number   1
_chemical_formula_structural   LiF
_chemical_formula_sum   'Li22 F22'
_cell_volume   527.76001155
_cell_formula_units_Z   22
loop_
 _symmetry_equiv_pos_site_id
 _symmetry_equiv_pos_as_xyz
  1  'x, y, z'
loop_
 _atom_site_type_symbol
 _atom_site_label
 _atom_site_symmetry_multiplicity
 _atom_site_fract_x
 _atom_site_fract_y
 _atom_site_fract_z
 _atom_site_occupancy
  F  F0  1  0.30530249  0.32072631  0.63729199  1
  F  F1  1  -0.30530249  -0.32072631  0.63729199  1
  F  F2  1  0.19469751  0.82072631  -0.13729199  1
  F  F3  1  0.80530249  0.17927369  -0.13729199  1
  F  F4  1  -0.30530249  -0.32072631  -0.63729199  1
  F  F5  1  0.30530249  0.32072631  -0.63729199  1
  F  F6  1  0.80530249  0.17927369  1.13729199  1
  F  F7  1  0.19469751  0.82072631  1.13729199  1
  F  F8  1  0.00000000  0.00000000  0.84619572  1
  F  F9  1  0.50000000  0.50000000  0.65380428  1
  F  F10  1  0.00000000  0.00000000  0.15380428  1
  F  F11  1  0.50000000  0.50000000  0.34619572  1
  F  F12  1  0.96120102  0.40881100  0.20623133  1
  F  F13  1  0.03879898  0.59118900  0.20623133  1
  F  F14  1  0.53879898  0.90881100  0.29376867  1
  F  F15  1  0.46120102  0.09118900  0.29376867  1
  F  F16  1  0.03879898  0.59118900  0.79376867  1
  F  F17  1  0.96120102  0.40881100  0.79376867  1
  F  F18  1  0.46120102  0.09118900  0.70623133  1
  F  F19  1  0.53879898  0.90881100  0.70623133  1
  F  F20  1  0.00000000  0.00000000  0.00000000  1
  F  F21  1  0.50000000  0.50000000  0.50000000  1
  Li  Li22  1  0.68576321  0.63020610  0.09941184  1
  Li  Li23  1  0.31423679  0.36979390  0.09941184  1
  Li  Li24  1  0.81423679  0.13020610  0.40058816  1
  Li  Li25  1  0.18576321  0.86979390  0.40058816  1
  Li  Li26  1  0.31423679  0.36979390  0.90058816  1
  Li  Li27  1  0.68576321  0.63020610  0.90058816  1
  Li  Li28  1  0.18576321  0.86979390  0.59941184  1
  Li  Li29  1  0.81423679  0.13020610  0.59941184  1
  Li  Li30  1  0.06988389  0.31348936  0.57268083  1
  Li  Li31  1  0.93011611  0.68651064  0.57268083  1
  Li  Li32  1  0.43011611  0.81348936  0.92731917  1
  Li  Li33  1  0.56988389  0.18651064  0.92731917  1
  Li  Li34  1  0.93011611  0.68651064  0.42731917  1
  Li  Li35  1  0.06988389  0.31348936  0.42731917  1
  Li  Li36  1  0.56988389  0.18651064  0.07268083  1
  Li  Li37  1  0.43011611  0.81348936  0.07268083  1
  Li  Li38  1  0.00000000  0.00000000  0.60599372  1
  Li  Li39  1  0.50000000  0.50000000  0.89400628  1
  Li  Li40  1  0.00000000  0.00000000  0.39400628  1
  Li  Li41  1  0.50000000  0.50000000  0.10599372  1
  Li  Li42  1  0.00000000  0.50000000  0.50000000  1
  Li  Li43  1  0.50000000  -0.00000000  0.00000000  1
