# generated using pymatgen
data_LiF
_symmetry_space_group_name_H-M   'P 1'
_cell_length_a   9.69638709
_cell_length_b   9.69638709
_cell_length_c   13.42700347
_cell_angle_alpha   90.00000000
_cell_angle_beta   90.00000000
_cell_angle_gamma   120.00000000
_symmetry_Int_Tables_number   1
_chemical_formula_structural   LiF
_chemical_formula_sum   'Li36 F36'
_cell_volume   1093.27551523
_cell_formula_units_Z   36
loop_
 _symmetry_equiv_pos_site_id
 _symmetry_equiv_pos_as_xyz
  1  'x, y, z'
loop_
 _atom_site_type_symbol
 _atom_site_label
 _atom_site_symmetry_multiplicity
 _atom_site_fract_x
 _atom_site_fract_y
 _atom_site_fract_z
 _atom_site_occupancy
  F  F0  1  0.88986081  0.58416096  0.43590018  1
  F  F1  1  -0.58416096  0.30569984  0.43590018  1
  F  F2  1  -0.30569984  -0.88986081  0.43590018  1
  F  F3  1  -0.88986081  -0.58416096  0.93590018  1
  F  F4  1  0.58416096  -0.30569984  0.93590018  1
  F  F5  1  0.30569984  0.88986081  0.93590018  1
  F  F6  1  -0.88986081  -0.58416096  -0.43590018  1
  F  F7  1  0.58416096  -0.30569984  -0.43590018  1
  F  F8  1  0.30569984  0.88986081  -0.43590018  1
  F  F9  1  0.88986081  0.58416096  0.06409982  1
  F  F10  1  -0.58416096  0.30569984  0.06409982  1
  F  F11  1  -0.30569984  -0.88986081  0.06409982  1
  F  F12  1  0.00000000  0.00000000  0.00000000  1
  F  F13  1  0.00000000  0.00000000  0.50000000  1
  F  F14  1  0.33333333  0.66666667  0.25000000  1
  F  F15  1  0.66666667  0.33333333  0.75000000  1
  F  F16  1  0.00000000  0.00000000  0.11635310  1
  F  F17  1  0.00000000  0.00000000  0.61635310  1
  F  F18  1  0.00000000  0.00000000  0.88364690  1
  F  F19  1  0.00000000  0.00000000  0.38364690  1
  F  F20  1  0.28095600  0.89241932  0.28476553  1
  F  F21  1  0.10758068  0.38853668  0.28476553  1
  F  F22  1  0.61146332  0.71904400  0.28476553  1
  F  F23  1  0.71904400  0.10758068  0.78476553  1
  F  F24  1  0.89241932  0.61146332  0.78476553  1
  F  F25  1  0.38853668  0.28095600  0.78476553  1
  F  F26  1  0.71904400  0.10758068  0.71523447  1
  F  F27  1  0.89241932  0.61146332  0.71523447  1
  F  F28  1  0.38853668  0.28095600  0.71523447  1
  F  F29  1  0.28095600  0.89241932  0.21523447  1
  F  F30  1  0.10758068  0.38853668  0.21523447  1
  F  F31  1  0.61146332  0.71904400  0.21523447  1
  F  F32  1  0.66666667  0.33333333  0.25000000  1
  F  F33  1  0.33333333  0.66666667  0.75000000  1
  F  F34  1  0.00000000  0.00000000  0.25000000  1
  F  F35  1  0.00000000  0.00000000  0.75000000  1
  Li  Li36  1  0.50000000  0.00000000  0.00000000  1
  Li  Li37  1  0.00000000  0.50000000  0.00000000  1
  Li  Li38  1  0.50000000  0.50000000  0.00000000  1
  Li  Li39  1  0.50000000  0.00000000  0.50000000  1
  Li  Li40  1  0.00000000  0.50000000  0.50000000  1
  Li  Li41  1  0.50000000  0.50000000  0.50000000  1
  Li  Li42  1  0.62378511  0.44475400  0.68092501  1
  Li  Li43  1  0.55524600  0.17903111  0.68092501  1
  Li  Li44  1  0.82096889  0.37621489  0.68092501  1
  Li  Li45  1  0.37621489  0.55524600  0.18092501  1
  Li  Li46  1  0.44475400  0.82096889  0.18092501  1
  Li  Li47  1  0.17903111  0.62378511  0.18092501  1
  Li  Li48  1  0.37621489  0.55524600  0.31907499  1
  Li  Li49  1  0.44475400  0.82096889  0.31907499  1
  Li  Li50  1  0.17903111  0.62378511  0.31907499  1
  Li  Li51  1  0.62378511  0.44475400  0.81907499  1
  Li  Li52  1  0.55524600  0.17903111  0.81907499  1
  Li  Li53  1  0.82096889  0.37621489  0.81907499  1
  Li  Li54  1  0.22859277  0.00081991  0.33642996  1
  Li  Li55  1  0.99918009  0.22777287  0.33642996  1
  Li  Li56  1  0.77222713  0.77140723  0.33642996  1
  Li  Li57  1  0.77140723  0.99918009  0.83642996  1
  Li  Li58  1  0.00081991  0.77222713  0.83642996  1
  Li  Li59  1  0.22777287  0.22859277  0.83642996  1
  Li  Li60  1  0.77140723  0.99918009  0.66357004  1
  Li  Li61  1  0.00081991  0.77222713  0.66357004  1
  Li  Li62  1  0.22777287  0.22859277  0.66357004  1
  Li  Li63  1  0.22859277  0.00081991  0.16357004  1
  Li  Li64  1  0.99918009  0.22777287  0.16357004  1
  Li  Li65  1  0.77222713  0.77140723  0.16357004  1
  Li  Li66  1  0.60835980  0.42178730  0.25000000  1
  Li  Li67  1  0.57821270  0.18657250  0.25000000  1
  Li  Li68  1  0.81342750  0.39164020  0.25000000  1
  Li  Li69  1  0.39164020  0.57821270  0.75000000  1
  Li  Li70  1  0.42178730  0.81342750  0.75000000  1
  Li  Li71  1  0.18657250  0.60835980  0.75000000  1
