# generated using pymatgen
data_LiCaF3
_symmetry_space_group_name_H-M   'P 1'
_cell_length_a   15.98149552
_cell_length_b   15.98149552
_cell_length_c   7.63803514
_cell_angle_alpha   90.00000000
_cell_angle_beta   90.00000000
_cell_angle_gamma   120.00000000
_symmetry_Int_Tables_number   1
_chemical_formula_structural   LiCaF3
_chemical_formula_sum   'Li18 Ca18 F54'
_cell_volume   1689.45690759
_cell_formula_units_Z   18
loop_
 _symmetry_equiv_pos_site_id
 _symmetry_equiv_pos_as_xyz
  1  'x, y, z'
loop_
 _atom_site_type_symbol
 _atom_site_label
 _atom_site_symmetry_multiplicity
 _atom_site_fract_x
 _atom_site_fract_y
 _atom_site_fract_z
 _atom_site_occupancy
  Ca  Ca0  1  0.50000000  0.00000000  0.00000000  1
  Ca  Ca1  1  0.00000000  0.50000000  0.00000000  1
  Ca  Ca2  1  0.50000000  0.50000000  0.00000000  1
  Ca  Ca3  1  0.00000000  0.50000000  0.50000000  1
  Ca  Ca4  1  0.50000000  0.00000000  0.50000000  1
  Ca  Ca5  1  0.50000000  0.50000000  0.50000000  1
  Ca  Ca6  1  0.16666667  0.33333333  0.33333333  1
  Ca  Ca7  1  0.66666667  0.83333333  0.33333333  1
  Ca  Ca8  1  0.16666667  0.83333333  0.33333333  1
  Ca  Ca9  1  0.66666667  0.83333333  0.83333333  1
  Ca  Ca10  1  0.16666667  0.33333333  0.83333333  1
  Ca  Ca11  1  0.16666667  0.83333333  0.83333333  1
  Ca  Ca12  1  0.83333333  0.66666667  0.66666667  1
  Ca  Ca13  1  0.33333333  0.16666667  0.66666667  1
  Ca  Ca14  1  0.83333333  0.16666667  0.66666667  1
  Ca  Ca15  1  0.33333333  0.16666667  0.16666667  1
  Ca  Ca16  1  0.83333333  0.66666667  0.16666667  1
  Ca  Ca17  1  0.83333333  0.16666667  0.16666667  1
  F  F18  1  0.04118578  0.81300496  0.04569434  1
  F  F19  1  -0.81300496  -0.77181918  0.04569434  1
  F  F20  1  0.77181918  -0.04118578  0.04569434  1
  F  F21  1  0.81300496  0.04118578  0.45430566  1
  F  F22  1  -0.77181918  -0.81300496  0.45430566  1
  F  F23  1  -0.04118578  0.77181918  0.45430566  1
  F  F24  1  -0.04118578  -0.81300496  -0.04569434  1
  F  F25  1  0.81300496  0.77181918  -0.04569434  1
  F  F26  1  -0.77181918  0.04118578  -0.04569434  1
  F  F27  1  -0.81300496  -0.04118578  0.54569434  1
  F  F28  1  0.77181918  0.81300496  0.54569434  1
  F  F29  1  0.04118578  -0.77181918  0.54569434  1
  F  F30  1  0.70785245  1.14633830  0.37902768  1
  F  F31  1  -0.14633830  -0.43848585  0.37902768  1
  F  F32  1  1.43848585  0.29214755  0.37902768  1
  F  F33  1  1.47967163  0.37451912  0.78763899  1
  F  F34  1  -0.10515251  -0.47967163  0.78763899  1
  F  F35  1  0.62548088  1.10515251  0.78763899  1
  F  F36  1  0.62548088  -0.47967163  0.28763899  1
  F  F37  1  1.47967163  1.10515251  0.28763899  1
  F  F38  1  -0.10515251  0.37451912  0.28763899  1
  F  F39  1  -0.14633830  0.29214755  0.87902768  1
  F  F40  1  1.43848585  1.14633830  0.87902768  1
  F  F41  1  0.70785245  -0.43848585  0.87902768  1
  F  F42  1  0.37451912  1.47967163  0.71236101  1
  F  F43  1  -0.47967163  -0.10515251  0.71236101  1
  F  F44  1  1.10515251  0.62548088  0.71236101  1
  F  F45  1  1.14633830  0.70785245  1.12097232  1
  F  F46  1  -0.43848585  -0.14633830  1.12097232  1
  F  F47  1  0.29214755  1.43848585  1.12097232  1
  F  F48  1  0.29214755  -0.14633830  0.62097232  1
  F  F49  1  1.14633830  1.43848585  0.62097232  1
  F  F50  1  -0.43848585  0.70785245  0.62097232  1
  F  F51  1  -0.47967163  0.62548088  1.21236101  1
  F  F52  1  1.10515251  1.47967163  1.21236101  1
  F  F53  1  0.37451912  -0.10515251  1.21236101  1
  F  F54  1  0.00000000  0.00000000  0.00000000  1
  F  F55  1  0.00000000  0.00000000  0.50000000  1
  F  F56  1  0.66666667  0.33333333  0.33333333  1
  F  F57  1  0.66666667  0.33333333  0.83333333  1
  F  F58  1  0.33333333  0.66666667  0.66666667  1
  F  F59  1  0.33333333  0.66666667  0.16666667  1
  F  F60  1  0.00000000  0.00000000  0.64850540  1
  F  F61  1  0.00000000  0.00000000  0.85149460  1
  F  F62  1  0.00000000  0.00000000  0.35149460  1
  F  F63  1  0.00000000  0.00000000  0.14850540  1
  F  F64  1  0.66666667  0.33333333  0.98183873  1
  F  F65  1  0.66666667  0.33333333  0.18482794  1
  F  F66  1  0.66666667  0.33333333  0.68482794  1
  F  F67  1  0.66666667  0.33333333  0.48183873  1
  F  F68  1  0.33333333  0.66666667  0.31517206  1
  F  F69  1  0.33333333  0.66666667  0.51816127  1
  F  F70  1  0.33333333  0.66666667  0.01816127  1
  F  F71  1  0.33333333  0.66666667  0.81517206  1
  Li  Li72  1  0.20642311  0.00000000  0.25000000  1
  Li  Li73  1  0.00000000  0.20642311  0.25000000  1
  Li  Li74  1  0.79357689  0.79357689  0.25000000  1
  Li  Li75  1  0.79357689  0.00000000  0.75000000  1
  Li  Li76  1  0.00000000  0.79357689  0.75000000  1
  Li  Li77  1  0.20642311  0.20642311  0.75000000  1
  Li  Li78  1  0.87308977  0.33333333  0.58333333  1
  Li  Li79  1  0.66666667  0.53975644  0.58333333  1
  Li  Li80  1  0.46024356  0.12691023  0.58333333  1
  Li  Li81  1  0.46024356  0.33333333  0.08333333  1
  Li  Li82  1  0.66666667  0.12691023  0.08333333  1
  Li  Li83  1  0.87308977  0.53975644  0.08333333  1
  Li  Li84  1  0.53975644  0.66666667  0.91666667  1
  Li  Li85  1  0.33333333  0.87308977  0.91666667  1
  Li  Li86  1  0.12691023  0.46024356  0.91666667  1
  Li  Li87  1  0.12691023  0.66666667  0.41666667  1
  Li  Li88  1  0.33333333  0.46024356  0.41666667  1
  Li  Li89  1  0.53975644  0.87308977  0.41666667  1
