# generated using pymatgen
data_Li4TeF2
_symmetry_space_group_name_H-M   'P 1'
_cell_length_a   8.18532712
_cell_length_b   16.93305834
_cell_length_c   21.14175630
_cell_angle_alpha   90.00000000
_cell_angle_beta   90.00000000
_cell_angle_gamma   90.00000000
_symmetry_Int_Tables_number   1
_chemical_formula_structural   Li4TeF2
_chemical_formula_sum   'Li96 Te24 F48'
_cell_volume   2930.30284877
_cell_formula_units_Z   24
loop_
 _symmetry_equiv_pos_site_id
 _symmetry_equiv_pos_as_xyz
  1  'x, y, z'
loop_
 _atom_site_type_symbol
 _atom_site_label
 _atom_site_symmetry_multiplicity
 _atom_site_fract_x
 _atom_site_fract_y
 _atom_site_fract_z
 _atom_site_occupancy
  F  F0  1  0.00000000  0.50000000  0.00000000  1
  F  F1  1  0.50000000  0.00000000  0.00000000  1
  F  F2  1  0.00000000  0.00000000  0.16548172  1
  F  F3  1  0.50000000  0.50000000  0.83451828  1
  F  F4  1  0.00000000  0.00000000  0.83451828  1
  F  F5  1  0.50000000  0.50000000  0.16548172  1
  F  F6  1  0.29213470  0.63784531  0.73803408  1
  F  F7  1  -0.29213470  -0.63784531  0.73803408  1
  F  F8  1  0.20786530  1.13784531  -0.73803408  1
  F  F9  1  0.79213470  -0.13784531  -0.73803408  1
  F  F10  1  -0.29213470  -0.63784531  -0.73803408  1
  F  F11  1  0.29213470  0.63784531  -0.73803408  1
  F  F12  1  0.79213470  -0.13784531  0.73803408  1
  F  F13  1  0.20786530  1.13784531  0.73803408  1
  F  F14  1  0.57367625  0.31220957  0.44239383  1
  F  F15  1  0.42632375  0.68779043  0.44239383  1
  F  F16  1  0.92632375  0.81220957  0.55760617  1
  F  F17  1  0.07367625  0.18779043  0.55760617  1
  F  F18  1  0.42632375  0.68779043  0.55760617  1
  F  F19  1  0.57367625  0.31220957  0.55760617  1
  F  F20  1  0.07367625  0.18779043  0.44239383  1
  F  F21  1  0.92632375  0.81220957  0.44239383  1
  F  F22  1  0.75535744  0.87247069  0.08035984  1
  F  F23  1  0.24464256  0.12752931  0.08035984  1
  F  F24  1  0.74464256  0.37247069  0.91964016  1
  F  F25  1  0.25535744  0.62752931  0.91964016  1
  F  F26  1  0.24464256  0.12752931  0.91964016  1
  F  F27  1  0.75535744  0.87247069  0.91964016  1
  F  F28  1  0.25535744  0.62752931  0.08035984  1
  F  F29  1  0.74464256  0.37247069  0.08035984  1
  F  F30  1  0.00000000  0.00000000  0.22130927  1
  F  F31  1  0.50000000  0.50000000  0.77869073  1
  F  F32  1  0.00000000  0.00000000  0.77869073  1
  F  F33  1  0.50000000  0.50000000  0.22130927  1
  F  F34  1  0.73686406  0.38972646  0.05689049  1
  F  F35  1  0.26313594  0.61027354  0.05689049  1
  F  F36  1  0.76313594  0.88972646  0.94310951  1
  F  F37  1  0.23686406  0.11027354  0.94310951  1
  F  F38  1  0.26313594  0.61027354  0.94310951  1
  F  F39  1  0.73686406  0.38972646  0.94310951  1
  F  F40  1  0.23686406  0.11027354  0.05689049  1
  F  F41  1  0.76313594  0.88972646  0.05689049  1
  F  F42  1  0.00000000  0.50000000  0.84142524  1
  F  F43  1  0.50000000  0.00000000  0.15857476  1
  F  F44  1  0.00000000  0.50000000  0.15857476  1
  F  F45  1  0.50000000  0.00000000  0.84142524  1
  F  F46  1  0.00000000  0.50000000  0.50000000  1
  F  F47  1  0.50000000  0.00000000  0.50000000  1
  Li  Li48  1  0.60974044  0.92511692  0.32489370  1
  Li  Li49  1  0.39025956  0.07488308  0.32489370  1
  Li  Li50  1  0.89025956  0.42511692  0.67510630  1
  Li  Li51  1  0.10974044  0.57488308  0.67510630  1
  Li  Li52  1  0.39025956  0.07488308  0.67510630  1
  Li  Li53  1  0.60974044  0.92511692  0.67510630  1
  Li  Li54  1  0.10974044  0.57488308  0.32489370  1
  Li  Li55  1  0.89025956  0.42511692  0.32489370  1
  Li  Li56  1  0.77906116  0.71339174  0.81301145  1
  Li  Li57  1  0.22093884  0.28660826  0.81301145  1
  Li  Li58  1  0.72093884  0.21339174  0.18698855  1
  Li  Li59  1  0.27906116  0.78660826  0.18698855  1
  Li  Li60  1  0.22093884  0.28660826  0.18698855  1
  Li  Li61  1  0.77906116  0.71339174  0.18698855  1
  Li  Li62  1  0.27906116  0.78660826  0.81301145  1
  Li  Li63  1  0.72093884  0.21339174  0.81301145  1
  Li  Li64  1  0.35147030  0.96765494  0.95680938  1
  Li  Li65  1  0.64852970  0.03234506  0.95680938  1
  Li  Li66  1  0.14852970  0.46765494  0.04319062  1
  Li  Li67  1  0.85147030  0.53234506  0.04319062  1
  Li  Li68  1  0.64852970  0.03234506  0.04319062  1
  Li  Li69  1  0.35147030  0.96765494  0.04319062  1
  Li  Li70  1  0.85147030  0.53234506  0.95680938  1
  Li  Li71  1  0.14852970  0.46765494  0.95680938  1
  Li  Li72  1  0.67384488  0.35258560  0.82777092  1
  Li  Li73  1  0.32615512  0.64741440  0.82777092  1
  Li  Li74  1  0.82615512  0.85258560  0.17222908  1
  Li  Li75  1  0.17384488  0.14741440  0.17222908  1
  Li  Li76  1  0.32615512  0.64741440  0.17222908  1
  Li  Li77  1  0.67384488  0.35258560  0.17222908  1
  Li  Li78  1  0.17384488  0.14741440  0.82777092  1
  Li  Li79  1  0.82615512  0.85258560  0.82777092  1
  Li  Li80  1  0.04903367  0.31656026  0.00000000  1
  Li  Li81  1  0.95096633  0.68343974  -0.00000000  1
  Li  Li82  1  0.45096633  0.81656026  -0.00000000  1
  Li  Li83  1  0.54903367  0.18343974  0.00000000  1
  Li  Li84  1  0.97091140  0.82173653  0.00000000  1
  Li  Li85  1  0.02908860  0.17826347  -0.00000000  1
  Li  Li86  1  0.52908860  0.32173653  0.00000000  1
  Li  Li87  1  0.47091140  0.67826347  0.00000000  1
  Li  Li88  1  0.66133604  0.63807991  -0.00000000  1
  Li  Li89  1  0.33866396  0.36192009  0.00000000  1
  Li  Li90  1  0.83866396  0.13807991  -0.00000000  1
  Li  Li91  1  0.16133604  0.86192009  0.00000000  1
  Li  Li92  1  0.37412831  0.98544434  0.21460495  1
  Li  Li93  1  0.62587169  0.01455566  0.21460495  1
  Li  Li94  1  0.12587169  0.48544434  0.78539505  1
  Li  Li95  1  0.87412831  0.51455566  0.78539505  1
  Li  Li96  1  0.62587169  0.01455566  0.78539505  1
  Li  Li97  1  0.37412831  0.98544434  0.78539505  1
  Li  Li98  1  0.87412831  0.51455566  0.21460495  1
  Li  Li99  1  0.12587169  0.48544434  0.21460495  1
  Li  Li100  1  0.58713022  0.84131216  0.74189500  1
  Li  Li101  1  0.41286978  0.15868784  0.74189500  1
  Li  Li102  1  0.91286978  0.34131216  0.25810500  1
  Li  Li103  1  0.08713022  0.65868784  0.25810500  1
  Li  Li104  1  0.41286978  0.15868784  0.25810500  1
  Li  Li105  1  0.58713022  0.84131216  0.25810500  1
  Li  Li106  1  0.08713022  0.65868784  0.74189500  1
  Li  Li107  1  0.91286978  0.34131216  0.74189500  1
  Li  Li108  1  0.72091028  0.12328646  0.50000000  1
  Li  Li109  1  0.27908972  0.87671354  0.50000000  1
  Li  Li110  1  0.77908972  0.62328646  0.50000000  1
  Li  Li111  1  0.22091028  0.37671354  0.50000000  1
  Li  Li112  1  0.36866332  0.39408036  0.22056092  1
  Li  Li113  1  0.63133668  0.60591964  0.22056092  1
  Li  Li114  1  0.13133668  0.89408036  0.77943908  1
  Li  Li115  1  0.86866332  0.10591964  0.77943908  1
  Li  Li116  1  0.63133668  0.60591964  0.77943908  1
  Li  Li117  1  0.36866332  0.39408036  0.77943908  1
  Li  Li118  1  0.86866332  0.10591964  0.22056092  1
  Li  Li119  1  0.13133668  0.89408036  0.22056092  1
  Li  Li120  1  0.13948433  0.97774031  0.78149555  1
  Li  Li121  1  0.86051567  0.02225969  0.78149555  1
  Li  Li122  1  0.36051567  0.47774031  0.21850445  1
  Li  Li123  1  0.63948433  0.52225969  0.21850445  1
  Li  Li124  1  0.86051567  0.02225969  0.21850445  1
  Li  Li125  1  0.13948433  0.97774031  0.21850445  1
  Li  Li126  1  0.63948433  0.52225969  0.78149555  1
  Li  Li127  1  0.36051567  0.47774031  0.78149555  1
  Li  Li128  1  0.98108494  0.57953929  0.72815297  1
  Li  Li129  1  0.01891506  0.42046071  0.72815297  1
  Li  Li130  1  0.51891506  0.07953929  0.27184703  1
  Li  Li131  1  0.48108494  0.92046071  0.27184703  1
  Li  Li132  1  0.01891506  0.42046071  0.27184703  1
  Li  Li133  1  0.98108494  0.57953929  0.27184703  1
  Li  Li134  1  0.48108494  0.92046071  0.72815297  1
  Li  Li135  1  0.51891506  0.07953929  0.72815297  1
  Li  Li136  1  0.71842074  0.03969020  0.32059324  1
  Li  Li137  1  0.28157926  0.96030980  0.32059324  1
  Li  Li138  1  0.78157926  0.53969020  0.67940676  1
  Li  Li139  1  0.21842074  0.46030980  0.67940676  1
  Li  Li140  1  0.28157926  0.96030980  0.67940676  1
  Li  Li141  1  0.71842074  0.03969020  0.67940676  1
  Li  Li142  1  0.21842074  0.46030980  0.32059324  1
  Li  Li143  1  0.78157926  0.53969020  0.32059324  1
  Te  Te144  1  0.39663133  0.09779216  0.50000000  1
  Te  Te145  1  0.60336867  0.90220784  0.50000000  1
  Te  Te146  1  0.10336867  0.59779216  0.50000000  1
  Te  Te147  1  0.89663133  0.40220784  0.50000000  1
  Te  Te148  1  0.82737312  0.60987447  0.60646915  1
  Te  Te149  1  0.17262688  0.39012553  0.60646915  1
  Te  Te150  1  0.67262688  0.10987447  0.39353085  1
  Te  Te151  1  0.32737312  0.89012553  0.39353085  1
  Te  Te152  1  0.17262688  0.39012553  0.39353085  1
  Te  Te153  1  0.82737312  0.60987447  0.39353085  1
  Te  Te154  1  0.32737312  0.89012553  0.60646915  1
  Te  Te155  1  0.67262688  0.10987447  0.60646915  1
  Te  Te156  1  0.00000000  0.50000000  0.70784892  1
  Te  Te157  1  0.50000000  0.00000000  0.29215108  1
  Te  Te158  1  0.00000000  0.50000000  0.29215108  1
  Te  Te159  1  0.50000000  0.00000000  0.70784892  1
  Te  Te160  1  0.52812453  0.73647378  0.50000000  1
  Te  Te161  1  0.47187547  0.26352622  0.50000000  1
  Te  Te162  1  0.97187547  0.23647378  0.50000000  1
  Te  Te163  1  0.02812453  0.76352622  0.50000000  1
  Te  Te164  1  0.71869395  0.76584334  0.00000000  1
  Te  Te165  1  0.28130605  0.23415666  0.00000000  1
  Te  Te166  1  0.78130605  0.26584334  0.00000000  1
  Te  Te167  1  0.21869395  0.73415666  -0.00000000  1
