# generated using pymatgen
data_Li3Y2P3Se2
_symmetry_space_group_name_H-M   'P 1'
_cell_length_a   5.95084204
_cell_length_b   6.14212000
_cell_length_c   7.49707655
_cell_angle_alpha   93.04230532
_cell_angle_beta   96.62550851
_cell_angle_gamma   102.21973134
_symmetry_Int_Tables_number   1
_chemical_formula_structural   Li3Y2P3Se2
_chemical_formula_sum   'Li3 Y2 P3 Se2'
_cell_volume   265.17798274
_cell_formula_units_Z   1
loop_
 _symmetry_equiv_pos_site_id
 _symmetry_equiv_pos_as_xyz
  1  'x, y, z'
loop_
 _atom_site_type_symbol
 _atom_site_label
 _atom_site_symmetry_multiplicity
 _atom_site_fract_x
 _atom_site_fract_y
 _atom_site_fract_z
 _atom_site_occupancy
  Se  Se0  1  0.12500000  0.12500000  0.12500000  1
  Se  Se1  1  0.50000000  0.50000000  0.50000000  1
  P  P2  1  0.25000000  0.25000000  0.25000000  1
  P  P3  1  0.75000000  0.75000000  0.75000000  1
  P  P4  1  0.01942060  0.64142583  0.82365821  1
  Li  Li5  1  0.36938656  0.89185121  0.95685422  1
  Li  Li6  1  0.36613491  0.84651646  0.88489135  1
  Li  Li7  1  0.19802321  0.56843695  0.62018814  1
  Y  Y8  1  0.05772914  0.01321147  0.35294426  1
  Y  Y9  1  0.42007208  0.88841681  0.10555721  1
