# generated using pymatgen
data_LiCaF3
_symmetry_space_group_name_H-M   'P 1'
_cell_length_a   14.19825830
_cell_length_b   14.19825830
_cell_length_c   8.91087546
_cell_angle_alpha   90.00000000
_cell_angle_beta   90.00000000
_cell_angle_gamma   120.00000000
_symmetry_Int_Tables_number   1
_chemical_formula_structural   LiCaF3
_chemical_formula_sum   'Li18 Ca18 F54'
_cell_volume   1555.68316196
_cell_formula_units_Z   18
loop_
 _symmetry_equiv_pos_site_id
 _symmetry_equiv_pos_as_xyz
  1  'x, y, z'
loop_
 _atom_site_type_symbol
 _atom_site_label
 _atom_site_symmetry_multiplicity
 _atom_site_fract_x
 _atom_site_fract_y
 _atom_site_fract_z
 _atom_site_occupancy
  Ca  Ca0  1  0.00000000  0.00000000  0.23658749  1
  Ca  Ca1  1  0.00000000  0.00000000  0.76341251  1
  Ca  Ca2  1  0.47298875  0.52701125  0.00000000  1
  Ca  Ca3  1  0.47298875  0.94597751  0.00000000  1
  Ca  Ca4  1  0.05402249  0.52701125  0.00000000  1
  Ca  Ca5  1  0.00000000  0.00000000  0.50000000  1
  Ca  Ca6  1  0.46725730  0.82862054  0.17766830  1
  Ca  Ca7  1  0.17137946  0.63863677  0.17766830  1
  Ca  Ca8  1  0.36136323  0.53274270  0.17766830  1
  Ca  Ca9  1  0.17137946  0.53274270  0.82233170  1
  Ca  Ca10  1  0.36136323  0.82862054  0.82233170  1
  Ca  Ca11  1  0.46725730  0.63863677  0.82233170  1
  Ca  Ca12  1  0.74216858  0.13875727  0.68295390  1
  Ca  Ca13  1  0.86124273  0.60341131  0.68295390  1
  Ca  Ca14  1  0.39658869  0.25783142  0.68295390  1
  Ca  Ca15  1  0.86124273  0.25783142  0.31704610  1
  Ca  Ca16  1  0.39658869  0.13875727  0.31704610  1
  Ca  Ca17  1  0.74216858  0.60341131  0.31704610  1
  F  F18  1  0.33333333  0.66666667  0.00000000  1
  F  F19  1  0.56283781  0.43716219  0.50000000  1
  F  F20  1  0.56283781  0.12567563  0.50000000  1
  F  F21  1  0.87432437  0.43716219  0.50000000  1
  F  F22  1  0.66666667  0.33333333  0.50000000  1
  F  F23  1  0.59876987  0.50437753  0.83825094  1
  F  F24  1  -0.50437753  0.09439234  0.83825094  1
  F  F25  1  -0.09439234  -0.59876987  0.83825094  1
  F  F26  1  -0.50437753  -0.59876987  -0.83825094  1
  F  F27  1  -0.09439234  0.50437753  -0.83825094  1
  F  F28  1  0.59876987  0.09439234  -0.83825094  1
  F  F29  1  0.74084954  0.27186679  0.95721321  1
  F  F30  1  0.72813321  0.46898274  0.95721321  1
  F  F31  1  0.53101726  0.25915046  0.95721321  1
  F  F32  1  0.72813321  0.25915046  0.04278679  1
  F  F33  1  0.53101726  0.27186679  0.04278679  1
  F  F34  1  0.74084954  0.46898274  0.04278679  1
  F  F35  1  0.98086160  0.92117762  0.97736375  1
  F  F36  1  0.07882238  0.05968398  0.97736375  1
  F  F37  1  0.94031602  0.01913840  0.97736375  1
  F  F38  1  0.07882238  0.01913840  0.02263625  1
  F  F39  1  0.94031602  0.92117762  0.02263625  1
  F  F40  1  0.98086160  0.05968398  0.02263625  1
  F  F41  1  0.10434749  0.32076415  0.79828732  1
  F  F42  1  0.67923585  0.78358335  0.79828732  1
  F  F43  1  0.21641665  0.89565251  0.79828732  1
  F  F44  1  0.67923585  0.89565251  0.20171268  1
  F  F45  1  0.21641665  0.32076415  0.20171268  1
  F  F46  1  0.10434749  0.78358335  0.20171268  1
  F  F47  1  0.25247535  0.45327227  0.70452831  1
  F  F48  1  0.54672773  0.79920308  0.70452831  1
  F  F49  1  0.20079692  0.74752465  0.70452831  1
  F  F50  1  0.54672773  0.74752465  0.29547169  1
  F  F51  1  0.20079692  0.45327227  0.29547169  1
  F  F52  1  0.25247535  0.79920308  0.29547169  1
  F  F53  1  0.33955408  0.61298636  0.00110773  1
  F  F54  1  0.38701364  0.72656772  0.00110773  1
  F  F55  1  0.27343228  0.66044592  0.00110773  1
  F  F56  1  0.38701364  0.66044592  0.99889227  1
  F  F57  1  0.27343228  0.61298636  0.99889227  1
  F  F58  1  0.33955408  0.72656772  0.99889227  1
  F  F59  1  0.66666667  0.33333333  0.00000000  1
  F  F60  1  0.53710592  0.27360634  0.18361114  1
  F  F61  1  0.72639366  0.26349958  0.18361114  1
  F  F62  1  0.73650042  0.46289408  0.18361114  1
  F  F63  1  0.72639366  0.46289408  0.81638886  1
  F  F64  1  0.73650042  0.27360634  0.81638886  1
  F  F65  1  0.53710592  0.26349958  0.81638886  1
  F  F66  1  0.33333333  0.66666667  0.92430945  1
  F  F67  1  0.33333333  0.66666667  0.07569055  1
  F  F68  1  0.19801444  0.80198556  0.50000000  1
  F  F69  1  0.19801444  0.39602888  0.50000000  1
  F  F70  1  0.60397112  0.80198556  0.50000000  1
  F  F71  1  0.00000000  0.00000000  0.00000000  1
  Li  Li72  1  0.90912079  0.77969050  0.82543689  1
  Li  Li73  1  0.22030950  0.12943029  0.82543689  1
  Li  Li74  1  0.87056971  0.09087921  0.82543689  1
  Li  Li75  1  0.22030950  0.09087921  0.17456311  1
  Li  Li76  1  0.87056971  0.77969050  0.17456311  1
  Li  Li77  1  0.90912079  0.12943029  0.17456311  1
  Li  Li78  1  0.41612983  0.94014265  0.69978455  1
  Li  Li79  1  0.05985735  0.47598718  0.69978455  1
  Li  Li80  1  0.52401282  0.58387017  0.69978455  1
  Li  Li81  1  0.05985735  0.58387017  0.30021545  1
  Li  Li82  1  0.52401282  0.94014265  0.30021545  1
  Li  Li83  1  0.41612983  0.47598718  0.30021545  1
  Li  Li84  1  0.88309548  0.45941848  0.85867738  1
  Li  Li85  1  0.54058152  0.42367700  0.85867738  1
  Li  Li86  1  0.57632300  0.11690452  0.85867738  1
  Li  Li87  1  0.54058152  0.11690452  0.14132262  1
  Li  Li88  1  0.57632300  0.45941848  0.14132262  1
  Li  Li89  1  0.88309548  0.42367700  0.14132262  1
