# generated using pymatgen
data_LiY2Cu3As4P
_symmetry_space_group_name_H-M   'P 1'
_cell_length_a   4.97311050
_cell_length_b   5.07624074
_cell_length_c   6.72954803
_cell_angle_alpha   94.68582645
_cell_angle_beta   99.55616518
_cell_angle_gamma   107.80394069
_symmetry_Int_Tables_number   1
_chemical_formula_structural   LiY2Cu3As4P
_chemical_formula_sum   'Li1 Y2 Cu3 As4 P1'
_cell_volume   157.90965845
_cell_formula_units_Z   1
loop_
 _symmetry_equiv_pos_site_id
 _symmetry_equiv_pos_as_xyz
  1  'x, y, z'
loop_
 _atom_site_type_symbol
 _atom_site_label
 _atom_site_symmetry_multiplicity
 _atom_site_fract_x
 _atom_site_fract_y
 _atom_site_fract_z
 _atom_site_occupancy
  Y  Y0  1  0.12500000  0.00000000  0.25000000  1
  Y  Y1  1  0.00000000  0.00000000  0.00000000  1
  P  P2  1  0.37500000  0.00000000  0.25000000  1
  As  As3  1  0.25000000  0.25000000  0.25000000  1
  As  As4  1  0.00000000  0.25000000  0.12500000  1
  As  As5  1  0.41254172  0.34485141  0.15040690  1
  As  As6  1  0.06055106  0.09788976  0.46170289  1
  Li  Li7  1  0.54296745  0.55289107  0.75235531  1
  Cu  Cu8  1  0.38772267  0.30142295  0.75505978  1
  Cu  Cu9  1  0.05229909  0.28638387  0.64595293  1
  Cu  Cu10  1  0.18559891  0.66074957  0.71316956  1
