# generated using pymatgen
data_LiF
_symmetry_space_group_name_H-M   'P 1'
_cell_length_a   4.55282825
_cell_length_b   9.57823752
_cell_length_c   11.22682105
_cell_angle_alpha   90.00000000
_cell_angle_beta   90.00000000
_cell_angle_gamma   90.00000000
_symmetry_Int_Tables_number   1
_chemical_formula_structural   LiF
_chemical_formula_sum   'Li24 F24'
_cell_volume   489.58000257
_cell_formula_units_Z   24
loop_
 _symmetry_equiv_pos_site_id
 _symmetry_equiv_pos_as_xyz
  1  'x, y, z'
loop_
 _atom_site_type_symbol
 _atom_site_label
 _atom_site_symmetry_multiplicity
 _atom_site_fract_x
 _atom_site_fract_y
 _atom_site_fract_z
 _atom_site_occupancy
  F  F0  1  0.34483250  0.81886024  0.43579475  1
  F  F1  1  0.15516750  0.18113976  0.93579475  1
  F  F2  1  0.65516750  0.31886024  0.56420525  1
  F  F3  1  0.84483250  0.68113976  0.06420525  1
  F  F4  1  0.65516750  0.18113976  0.56420525  1
  F  F5  1  0.84483250  0.81886024  0.06420525  1
  F  F6  1  0.34483250  0.68113976  0.43579475  1
  F  F7  1  0.15516750  0.31886024  0.93579475  1
  F  F8  1  0.26846167  0.25000000  0.19866294  1
  F  F9  1  0.23153833  0.75000000  0.69866294  1
  F  F10  1  0.73153833  0.75000000  0.80133706  1
  F  F11  1  0.76846167  0.25000000  0.30133706  1
  F  F12  1  0.38736478  0.25000000  0.37699685  1
  F  F13  1  0.11263522  0.75000000  0.87699685  1
  F  F14  1  0.61263522  0.75000000  0.62300315  1
  F  F15  1  0.88736478  0.25000000  0.12300315  1
  F  F16  1  0.44652010  0.25000000  0.49751081  1
  F  F17  1  0.05347990  0.75000000  0.99751081  1
  F  F18  1  0.55347990  0.75000000  0.50248919  1
  F  F19  1  0.94652010  0.25000000  0.00248919  1
  F  F20  1  0.96733961  0.25000000  0.76892834  1
  F  F21  1  0.53266039  0.75000000  0.26892834  1
  F  F22  1  0.03266039  0.75000000  0.23107166  1
  F  F23  1  0.46733961  0.25000000  0.73107166  1
  Li  Li24  1  0.89999254  0.98302406  0.44125684  1
  Li  Li25  1  -0.39999254  -0.98302406  0.94125684  1
  Li  Li26  1  -0.89999254  1.48302406  -0.44125684  1
  Li  Li27  1  1.39999254  -0.48302406  0.05874316  1
  Li  Li28  1  -0.89999254  -0.98302406  -0.44125684  1
  Li  Li29  1  1.39999254  0.98302406  0.05874316  1
  Li  Li30  1  0.89999254  -0.48302406  0.44125684  1
  Li  Li31  1  -0.39999254  1.48302406  0.94125684  1
  Li  Li32  1  0.73814654  0.56959709  0.30654147  1
  Li  Li33  1  0.76185346  0.43040291  0.80654147  1
  Li  Li34  1  0.26185346  0.06959709  0.69345853  1
  Li  Li35  1  0.23814654  0.93040291  0.19345853  1
  Li  Li36  1  0.26185346  0.43040291  0.69345853  1
  Li  Li37  1  0.23814654  0.56959709  0.19345853  1
  Li  Li38  1  0.73814654  0.93040291  0.30654147  1
  Li  Li39  1  0.76185346  0.06959709  0.80654147  1
  Li  Li40  1  0.00000000  0.00000000  0.00000000  1
  Li  Li41  1  0.50000000  0.00000000  0.50000000  1
  Li  Li42  1  0.00000000  0.50000000  0.00000000  1
  Li  Li43  1  0.50000000  0.50000000  0.50000000  1
  Li  Li44  1  0.64078185  0.25000000  0.64029528  1
  Li  Li45  1  0.85921815  0.75000000  0.14029528  1
  Li  Li46  1  0.35921815  0.75000000  0.35970472  1
  Li  Li47  1  0.14078185  0.25000000  0.85970472  1
