# generated using pymatgen
data_LiF
_symmetry_space_group_name_H-M   'P 1'
_cell_length_a   9.94336641
_cell_length_b   9.94336641
_cell_length_c   8.52091320
_cell_angle_alpha   90.00000000
_cell_angle_beta   90.00000000
_cell_angle_gamma   120.00000000
_symmetry_Int_Tables_number   1
_chemical_formula_structural   LiF
_chemical_formula_sum   'Li25 F25'
_cell_volume   729.59804175
_cell_formula_units_Z   25
loop_
 _symmetry_equiv_pos_site_id
 _symmetry_equiv_pos_as_xyz
  1  'x, y, z'
loop_
 _atom_site_type_symbol
 _atom_site_label
 _atom_site_symmetry_multiplicity
 _atom_site_fract_x
 _atom_site_fract_y
 _atom_site_fract_z
 _atom_site_occupancy
  F  F0  1  0.76147633  0.26979387  0.27293801  1
  F  F1  1  0.73020613  0.49168246  0.27293801  1
  F  F2  1  0.50831754  0.23852367  0.27293801  1
  F  F3  1  0.73020613  0.23852367  0.72706199  1
  F  F4  1  0.50831754  0.26979387  0.72706199  1
  F  F5  1  0.76147633  0.49168246  0.72706199  1
  F  F6  1  0.66666667  0.33333333  0.50000000  1
  F  F7  1  0.32183891  0.15166629  0.66493604  1
  F  F8  1  0.84833371  0.17017262  0.66493604  1
  F  F9  1  0.82982738  0.67816109  0.66493604  1
  F  F10  1  0.84833371  0.67816109  0.33506396  1
  F  F11  1  0.82982738  0.15166629  0.33506396  1
  F  F12  1  0.32183891  0.17017262  0.33506396  1
  F  F13  1  0.68555089  0.19464504  0.35777276  1
  F  F14  1  0.80535496  0.49090585  0.35777276  1
  F  F15  1  0.50909415  0.31444911  0.35777276  1
  F  F16  1  0.80535496  0.31444911  0.64222724  1
  F  F17  1  0.50909415  0.19464504  0.64222724  1
  F  F18  1  0.68555089  0.49090585  0.64222724  1
  F  F19  1  0.68038633  0.18163147  0.84243381  1
  F  F20  1  0.81836853  0.49875486  0.84243381  1
  F  F21  1  0.50124514  0.31961367  0.84243381  1
  F  F22  1  0.81836853  0.31961367  0.15756619  1
  F  F23  1  0.50124514  0.18163147  0.15756619  1
  F  F24  1  0.68038633  0.49875486  0.15756619  1
  Li  Li25  1  0.00000000  0.00000000  0.50000000  1
  Li  Li26  1  0.29910193  0.49923555  0.40854373  1
  Li  Li27  1  -0.49923555  -0.20013363  0.40854373  1
  Li  Li28  1  0.20013363  -0.29910193  0.40854373  1
  Li  Li29  1  -0.49923555  -0.29910193  -0.40854373  1
  Li  Li30  1  0.20013363  0.49923555  -0.40854373  1
  Li  Li31  1  0.29910193  -0.20013363  -0.40854373  1
  Li  Li32  1  0.33333333  0.66666667  0.00000000  1
  Li  Li33  1  0.81179917  0.72035235  0.87605511  1
  Li  Li34  1  0.27964765  0.09144682  0.87605511  1
  Li  Li35  1  0.90855318  0.18820083  0.87605511  1
  Li  Li36  1  0.27964765  0.18820083  0.12394489  1
  Li  Li37  1  0.90855318  0.72035235  0.12394489  1
  Li  Li38  1  0.81179917  0.09144682  0.12394489  1
  Li  Li39  1  0.77732832  0.07928962  0.53828770  1
  Li  Li40  1  0.92071038  0.69803870  0.53828770  1
  Li  Li41  1  0.30196130  0.22267168  0.53828770  1
  Li  Li42  1  0.92071038  0.22267168  0.46171230  1
  Li  Li43  1  0.30196130  0.07928962  0.46171230  1
  Li  Li44  1  0.77732832  0.69803870  0.46171230  1
  Li  Li45  1  0.66666667  0.33333333  0.00000000  1
  Li  Li46  1  0.33333333  0.66666667  0.67346224  1
  Li  Li47  1  0.33333333  0.66666667  0.32653776  1
  Li  Li48  1  0.00000000  0.00000000  0.68478227  1
  Li  Li49  1  0.00000000  0.00000000  0.31521773  1
