# generated using pymatgen
data_LiF
_symmetry_space_group_name_H-M   'P 1'
_cell_length_a   10.95241377
_cell_length_b   10.95241377
_cell_length_c   7.64429154
_cell_angle_alpha   90.00000000
_cell_angle_beta   90.00000000
_cell_angle_gamma   120.00000000
_symmetry_Int_Tables_number   1
_chemical_formula_structural   LiF
_chemical_formula_sum   'Li25 F25'
_cell_volume   794.12260631
_cell_formula_units_Z   25
loop_
 _symmetry_equiv_pos_site_id
 _symmetry_equiv_pos_as_xyz
  1  'x, y, z'
loop_
 _atom_site_type_symbol
 _atom_site_label
 _atom_site_symmetry_multiplicity
 _atom_site_fract_x
 _atom_site_fract_y
 _atom_site_fract_z
 _atom_site_occupancy
  F  F0  1  0.42432031  0.17903126  0.87367065  1
  F  F1  1  0.82096874  0.24528905  0.87367065  1
  F  F2  1  0.75471095  0.57567969  0.87367065  1
  F  F3  1  0.82096874  0.57567969  0.12632935  1
  F  F4  1  0.75471095  0.17903126  0.12632935  1
  F  F5  1  0.42432031  0.24528905  0.12632935  1
  F  F6  1  0.65365403  0.63398156  0.80877540  1
  F  F7  1  0.36601844  0.01967247  0.80877540  1
  F  F8  1  0.98032753  0.34634597  0.80877540  1
  F  F9  1  0.36601844  0.34634597  0.19122460  1
  F  F10  1  0.98032753  0.63398156  0.19122460  1
  F  F11  1  0.65365403  0.01967247  0.19122460  1
  F  F12  1  0.34515922  0.29870133  0.14003053  1
  F  F13  1  0.70129867  0.04645789  0.14003053  1
  F  F14  1  0.95354211  0.65484078  0.14003053  1
  F  F15  1  0.70129867  0.65484078  0.85996947  1
  F  F16  1  0.95354211  0.29870133  0.85996947  1
  F  F17  1  0.34515922  0.04645789  0.85996947  1
  F  F18  1  0.10254527  0.89745473  0.00000000  1
  F  F19  1  0.10254527  0.20509054  0.00000000  1
  F  F20  1  0.79490946  0.89745473  0.00000000  1
  F  F21  1  0.55710596  0.44289404  0.00000000  1
  F  F22  1  0.55710596  0.11421191  0.00000000  1
  F  F23  1  0.88578809  0.44289404  0.00000000  1
  F  F24  1  0.00000000  0.00000000  0.50000000  1
  Li  Li25  1  0.33333333  0.66666667  0.50000000  1
  Li  Li26  1  0.75099263  0.50829928  0.73306692  1
  Li  Li27  1  -0.50829928  0.24269335  0.73306692  1
  Li  Li28  1  -0.24269335  -0.75099263  0.73306692  1
  Li  Li29  1  -0.50829928  -0.75099263  -0.73306692  1
  Li  Li30  1  -0.24269335  0.50829928  -0.73306692  1
  Li  Li31  1  0.75099263  0.24269335  -0.73306692  1
  Li  Li32  1  0.28591816  0.32117860  0.54744250  1
  Li  Li33  1  0.67882140  0.96473955  0.54744250  1
  Li  Li34  1  0.03526045  0.71408184  0.54744250  1
  Li  Li35  1  0.67882140  0.71408184  0.45255750  1
  Li  Li36  1  0.03526045  0.32117860  0.45255750  1
  Li  Li37  1  0.28591816  0.96473955  0.45255750  1
  Li  Li38  1  0.66666667  0.33333333  0.22612459  1
  Li  Li39  1  0.66666667  0.33333333  0.77387541  1
  Li  Li40  1  0.08810398  0.12523970  0.17395680  1
  Li  Li41  1  0.87476030  0.96286428  0.17395680  1
  Li  Li42  1  0.03713572  0.91189602  0.17395680  1
  Li  Li43  1  0.87476030  0.91189602  0.82604320  1
  Li  Li44  1  0.03713572  0.12523970  0.82604320  1
  Li  Li45  1  0.08810398  0.96286428  0.82604320  1
  Li  Li46  1  0.03896094  0.96103906  0.00000000  1
  Li  Li47  1  0.03896094  0.07792187  0.00000000  1
  Li  Li48  1  0.92207813  0.96103906  0.00000000  1
  Li  Li49  1  0.66666667  0.33333333  0.50000000  1
