# generated using pymatgen
data_Li4TeF2
_symmetry_space_group_name_H-M   'P 1'
_cell_length_a   25.46561001
_cell_length_b   25.46561001
_cell_length_c   6.28438872
_cell_angle_alpha   90.00000000
_cell_angle_beta   90.00000000
_cell_angle_gamma   120.00000000
_symmetry_Int_Tables_number   1
_chemical_formula_structural   Li4TeF2
_chemical_formula_sum   'Li96 Te24 F48'
_cell_volume   3529.40779059
_cell_formula_units_Z   24
loop_
 _symmetry_equiv_pos_site_id
 _symmetry_equiv_pos_as_xyz
  1  'x, y, z'
loop_
 _atom_site_type_symbol
 _atom_site_label
 _atom_site_symmetry_multiplicity
 _atom_site_fract_x
 _atom_site_fract_y
 _atom_site_fract_z
 _atom_site_occupancy
  F  F0  1  0.94754107  0.80516893  0.34357514  1
  F  F1  1  -0.80516893  0.14237214  0.34357514  1
  F  F2  1  -0.14237214  -0.94754107  0.34357514  1
  F  F3  1  -0.80516893  -0.94754107  -0.34357514  1
  F  F4  1  -0.14237214  0.80516893  -0.34357514  1
  F  F5  1  0.94754107  0.14237214  -0.34357514  1
  F  F6  1  0.28569053  0.42440050  0.89113064  1
  F  F7  1  0.57559950  0.86129003  0.89113064  1
  F  F8  1  0.13870997  0.71430947  0.89113064  1
  F  F9  1  0.57559950  0.71430947  0.10886936  1
  F  F10  1  0.13870997  0.42440050  0.10886936  1
  F  F11  1  0.28569053  0.86129003  0.10886936  1
  F  F12  1  0.66666667  0.33333333  0.50000000  1
  F  F13  1  0.59710551  0.12550247  0.21476041  1
  F  F14  1  0.87449753  0.47160304  0.21476041  1
  F  F15  1  0.52839696  0.40289449  0.21476041  1
  F  F16  1  0.87449753  0.40289449  0.78523959  1
  F  F17  1  0.52839696  0.12550247  0.78523959  1
  F  F18  1  0.59710551  0.47160304  0.78523959  1
  F  F19  1  0.00812696  0.76321263  0.48495754  1
  F  F20  1  0.23678737  0.24491433  0.48495754  1
  F  F21  1  0.75508567  0.99187304  0.48495754  1
  F  F22  1  0.23678737  0.99187304  0.51504246  1
  F  F23  1  0.75508567  0.76321263  0.51504246  1
  F  F24  1  0.00812696  0.24491433  0.51504246  1
  F  F25  1  0.96763546  0.39402492  0.38928997  1
  F  F26  1  0.60597508  0.57361053  0.38928997  1
  F  F27  1  0.42638947  0.03236454  0.38928997  1
  F  F28  1  0.60597508  0.03236454  0.61071003  1
  F  F29  1  0.42638947  0.39402492  0.61071003  1
  F  F30  1  0.96763546  0.57361053  0.61071003  1
  F  F31  1  0.84893595  0.15106405  0.50000000  1
  F  F32  1  0.84893595  0.69787190  0.50000000  1
  F  F33  1  0.30212810  0.15106405  0.50000000  1
  F  F34  1  0.49358879  0.52560670  0.67794464  1
  F  F35  1  0.47439330  0.96798209  0.67794464  1
  F  F36  1  0.03201791  0.50641121  0.67794464  1
  F  F37  1  0.47439330  0.50641121  0.32205536  1
  F  F38  1  0.03201791  0.52560670  0.32205536  1
  F  F39  1  0.49358879  0.96798209  0.32205536  1
  F  F40  1  0.53108342  0.90399112  0.19646322  1
  F  F41  1  0.09600888  0.62709230  0.19646322  1
  F  F42  1  0.37290770  0.46891658  0.19646322  1
  F  F43  1  0.09600888  0.46891658  0.80353678  1
  F  F44  1  0.37290770  0.90399112  0.80353678  1
  F  F45  1  0.53108342  0.62709230  0.80353678  1
  F  F46  1  0.00000000  0.00000000  0.56468789  1
  F  F47  1  0.00000000  0.00000000  0.43531211  1
  Li  Li48  1  0.00000000  0.00000000  0.11509901  1
  Li  Li49  1  0.00000000  0.00000000  0.88490099  1
  Li  Li50  1  0.56618813  0.24516246  0.04139882  1
  Li  Li51  1  0.75483754  0.32102566  0.04139882  1
  Li  Li52  1  0.67897434  0.43381187  0.04139882  1
  Li  Li53  1  0.75483754  0.43381187  0.95860118  1
  Li  Li54  1  0.67897434  0.24516246  0.95860118  1
  Li  Li55  1  0.56618813  0.32102566  0.95860118  1
  Li  Li56  1  0.54409933  0.34644922  0.38960444  1
  Li  Li57  1  0.65355078  0.19765011  0.38960444  1
  Li  Li58  1  0.80234989  0.45590067  0.38960444  1
  Li  Li59  1  0.65355078  0.45590067  0.61039556  1
  Li  Li60  1  0.80234989  0.34644922  0.61039556  1
  Li  Li61  1  0.54409933  0.19765011  0.61039556  1
  Li  Li62  1  0.21193401  0.06711376  0.48246899  1
  Li  Li63  1  0.93288624  0.14482025  0.48246899  1
  Li  Li64  1  0.85517975  0.78806599  0.48246899  1
  Li  Li65  1  0.93288624  0.78806599  0.51753101  1
  Li  Li66  1  0.85517975  0.06711376  0.51753101  1
  Li  Li67  1  0.21193401  0.14482025  0.51753101  1
  Li  Li68  1  0.33333333  0.66666667  0.50000000  1
  Li  Li69  1  0.67542064  0.89214337  0.09560555  1
  Li  Li70  1  0.10785663  0.78327727  0.09560555  1
  Li  Li71  1  0.21672273  0.32457936  0.09560555  1
  Li  Li72  1  0.10785663  0.32457936  0.90439445  1
  Li  Li73  1  0.21672273  0.89214337  0.90439445  1
  Li  Li74  1  0.67542064  0.78327727  0.90439445  1
  Li  Li75  1  0.05427570  0.57864437  0.73277861  1
  Li  Li76  1  0.42135563  0.47563133  0.73277861  1
  Li  Li77  1  0.52436867  0.94572430  0.73277861  1
  Li  Li78  1  0.42135563  0.94572430  0.26722139  1
  Li  Li79  1  0.52436867  0.57864437  0.26722139  1
  Li  Li80  1  0.05427570  0.47563133  0.26722139  1
  Li  Li81  1  0.48363200  0.51636800  0.50000000  1
  Li  Li82  1  0.48363200  0.96726399  0.50000000  1
  Li  Li83  1  0.03273601  0.51636800  0.50000000  1
  Li  Li84  1  0.41433036  0.58566964  0.50000000  1
  Li  Li85  1  0.41433036  0.82866072  0.50000000  1
  Li  Li86  1  0.17133928  0.58566964  0.50000000  1
  Li  Li87  1  0.40171173  0.59828827  0.00000000  1
  Li  Li88  1  0.40171173  0.80342345  0.00000000  1
  Li  Li89  1  0.19657655  0.59828827  0.00000000  1
  Li  Li90  1  0.65737233  0.49164095  0.94226289  1
  Li  Li91  1  0.50835905  0.16573138  0.94226289  1
  Li  Li92  1  0.83426862  0.34262767  0.94226289  1
  Li  Li93  1  0.50835905  0.34262767  0.05773711  1
  Li  Li94  1  0.83426862  0.49164095  0.05773711  1
  Li  Li95  1  0.65737233  0.16573138  0.05773711  1
  Li  Li96  1  0.31359357  0.25540219  0.11004580  1
  Li  Li97  1  0.74459781  0.05819138  0.11004580  1
  Li  Li98  1  0.94180862  0.68640643  0.11004580  1
  Li  Li99  1  0.74459781  0.68640643  0.88995420  1
  Li  Li100  1  0.94180862  0.25540219  0.88995420  1
  Li  Li101  1  0.31359357  0.05819138  0.88995420  1
  Li  Li102  1  0.60341510  0.39658490  0.50000000  1
  Li  Li103  1  0.60341510  0.20683020  0.50000000  1
  Li  Li104  1  0.79316980  0.39658490  0.50000000  1
  Li  Li105  1  0.89241849  0.42181568  0.43541701  1
  Li  Li106  1  0.57818432  0.47060281  0.43541701  1
  Li  Li107  1  0.52939719  0.10758151  0.43541701  1
  Li  Li108  1  0.57818432  0.10758151  0.56458299  1
  Li  Li109  1  0.52939719  0.42181568  0.56458299  1
  Li  Li110  1  0.89241849  0.47060281  0.56458299  1
  Li  Li111  1  0.87285926  0.62334259  0.34391278  1
  Li  Li112  1  0.37665741  0.24951667  0.34391278  1
  Li  Li113  1  0.75048333  0.12714074  0.34391278  1
  Li  Li114  1  0.37665741  0.12714074  0.65608722  1
  Li  Li115  1  0.75048333  0.62334259  0.65608722  1
  Li  Li116  1  0.87285926  0.24951667  0.65608722  1
  Li  Li117  1  0.37774189  0.85371318  0.48407498  1
  Li  Li118  1  0.14628682  0.52402871  0.48407498  1
  Li  Li119  1  0.47597129  0.62225811  0.48407498  1
  Li  Li120  1  0.14628682  0.62225811  0.51592502  1
  Li  Li121  1  0.47597129  0.85371318  0.51592502  1
  Li  Li122  1  0.37774189  0.52402871  0.51592502  1
  Li  Li123  1  0.40133154  0.01944614  0.87117173  1
  Li  Li124  1  0.98055386  0.38188540  0.87117173  1
  Li  Li125  1  0.61811460  0.59866846  0.87117173  1
  Li  Li126  1  0.98055386  0.59866846  0.12882827  1
  Li  Li127  1  0.61811460  0.01944614  0.12882827  1
  Li  Li128  1  0.40133154  0.38188540  0.12882827  1
  Li  Li129  1  0.99305941  0.88041111  0.81643510  1
  Li  Li130  1  0.11958889  0.11264830  0.81643510  1
  Li  Li131  1  0.88735170  0.00694059  0.81643510  1
  Li  Li132  1  0.11958889  0.00694059  0.18356490  1
  Li  Li133  1  0.88735170  0.88041111  0.18356490  1
  Li  Li134  1  0.99305941  0.11264830  0.18356490  1
  Li  Li135  1  0.90340865  0.57125276  0.09571845  1
  Li  Li136  1  0.42874724  0.33215590  0.09571845  1
  Li  Li137  1  0.66784410  0.09659135  0.09571845  1
  Li  Li138  1  0.42874724  0.09659135  0.90428155  1
  Li  Li139  1  0.66784410  0.57125276  0.90428155  1
  Li  Li140  1  0.90340865  0.33215590  0.90428155  1
  Li  Li141  1  0.77408625  0.22591375  -0.00000000  1
  Li  Li142  1  0.77408625  0.54817249  0.00000000  1
  Li  Li143  1  0.45182751  0.22591375  -0.00000000  1
  Te  Te144  1  0.25119099  0.95521563  0.85730130  1
  Te  Te145  1  0.04478437  0.29597536  0.85730130  1
  Te  Te146  1  0.70402464  0.74880901  0.85730130  1
  Te  Te147  1  0.04478437  0.74880901  0.14269870  1
  Te  Te148  1  0.70402464  0.95521563  0.14269870  1
  Te  Te149  1  0.25119099  0.29597536  0.14269870  1
  Te  Te150  1  0.66666667  0.33333333  -0.00000000  1
  Te  Te151  1  0.31198242  0.38201153  0.38261147  1
  Te  Te152  1  0.61798847  0.92997089  0.38261147  1
  Te  Te153  1  0.07002911  0.68801758  0.38261147  1
  Te  Te154  1  0.61798847  0.68801758  0.61738853  1
  Te  Te155  1  0.07002911  0.38201153  0.61738853  1
  Te  Te156  1  0.31198242  0.92997089  0.61738853  1
  Te  Te157  1  0.62763972  0.37236028  -0.00000000  1
  Te  Te158  1  0.62763972  0.25527943  -0.00000000  1
  Te  Te159  1  0.74472057  0.37236028  -0.00000000  1
  Te  Te160  1  0.46151875  0.32225324  0.43809130  1
  Te  Te161  1  0.67774676  0.13926550  0.43809130  1
  Te  Te162  1  0.86073450  0.53848125  0.43809130  1
  Te  Te163  1  0.67774676  0.53848125  0.56190870  1
  Te  Te164  1  0.86073450  0.32225324  0.56190870  1
  Te  Te165  1  0.46151875  0.13926550  0.56190870  1
  Te  Te166  1  0.66666667  0.33333333  0.77304171  1
  Te  Te167  1  0.66666667  0.33333333  0.22695829  1
