# generated using pymatgen
data_LiY2AsP2
_symmetry_space_group_name_H-M   'P 1'
_cell_length_a   4.05924135
_cell_length_b   4.27893426
_cell_length_c   6.45372209
_cell_angle_alpha   96.25845662
_cell_angle_beta   102.55095341
_cell_angle_gamma   111.70005429
_symmetry_Int_Tables_number   1
_chemical_formula_structural   LiY2AsP2
_chemical_formula_sum   'Li1 Y2 As1 P2'
_cell_volume   99.42252218
_cell_formula_units_Z   1
loop_
 _symmetry_equiv_pos_site_id
 _symmetry_equiv_pos_as_xyz
  1  'x, y, z'
loop_
 _atom_site_type_symbol
 _atom_site_label
 _atom_site_symmetry_multiplicity
 _atom_site_fract_x
 _atom_site_fract_y
 _atom_site_fract_z
 _atom_site_occupancy
  P  P0  1  0.00000000  0.00000000  0.00000000  1
  P  P1  1  0.33300000  0.66700000  0.25000000  1
  As  As2  1  0.66700000  0.33300000  0.50000000  1
  Li  Li3  1  0.00000000  0.00000000  0.75000000  1
  Y  Y4  1  0.66667076  0.39762694  0.32821419  1
  Y  Y5  1  0.17189101  0.09254431  0.47021063  1
