# generated using pymatgen
data_LiF
_symmetry_space_group_name_H-M   'P 1'
_cell_length_a   5.95922663
_cell_length_b   8.99347827
_cell_length_c   8.76248970
_cell_angle_alpha   90.00000000
_cell_angle_beta   90.00000000
_cell_angle_gamma   90.00000000
_symmetry_Int_Tables_number   1
_chemical_formula_structural   LiF
_chemical_formula_sum   'Li28 F28'
_cell_volume   469.61840796
_cell_formula_units_Z   28
loop_
 _symmetry_equiv_pos_site_id
 _symmetry_equiv_pos_as_xyz
  1  'x, y, z'
loop_
 _atom_site_type_symbol
 _atom_site_label
 _atom_site_symmetry_multiplicity
 _atom_site_fract_x
 _atom_site_fract_y
 _atom_site_fract_z
 _atom_site_occupancy
  F  F0  1  0.61066162  0.10606267  0.89938193  1
  F  F1  1  0.38933838  0.89393733  0.89938193  1
  F  F2  1  0.88933838  0.60606267  0.10061807  1
  F  F3  1  0.11066162  0.39393733  0.10061807  1
  F  F4  1  0.38933838  0.89393733  0.10061807  1
  F  F5  1  0.61066162  0.10606267  0.10061807  1
  F  F6  1  0.11066162  0.39393733  0.89938193  1
  F  F7  1  0.88933838  0.60606267  0.89938193  1
  F  F8  1  0.00000000  0.50000000  0.50000000  1
  F  F9  1  0.50000000  0.00000000  0.50000000  1
  F  F10  1  0.14757204  0.41244885  0.82851356  1
  F  F11  1  0.85242796  0.58755115  0.82851356  1
  F  F12  1  0.35242796  0.91244885  0.17148644  1
  F  F13  1  0.64757204  0.08755115  0.17148644  1
  F  F14  1  0.85242796  0.58755115  0.17148644  1
  F  F15  1  0.14757204  0.41244885  0.17148644  1
  F  F16  1  0.64757204  0.08755115  0.82851356  1
  F  F17  1  0.35242796  0.91244885  0.82851356  1
  F  F18  1  0.98994773  0.14886683  0.95184256  1
  F  F19  1  0.01005227  0.85113317  0.95184256  1
  F  F20  1  0.51005227  0.64886683  0.04815744  1
  F  F21  1  0.48994773  0.35113317  0.04815744  1
  F  F22  1  0.01005227  0.85113317  0.04815744  1
  F  F23  1  0.98994773  0.14886683  0.04815744  1
  F  F24  1  0.48994773  0.35113317  0.95184256  1
  F  F25  1  0.51005227  0.64886683  0.95184256  1
  F  F26  1  0.00000000  0.00000000  0.50000000  1
  F  F27  1  0.50000000  0.50000000  0.50000000  1
  Li  Li28  1  0.00000000  0.00000000  0.83696878  1
  Li  Li29  1  0.50000000  0.50000000  0.16303122  1
  Li  Li30  1  0.00000000  0.00000000  0.16303122  1
  Li  Li31  1  0.50000000  0.50000000  0.83696878  1
  Li  Li32  1  0.96172960  0.71917419  0.65368027  1
  Li  Li33  1  -0.96172960  -0.71917419  0.65368027  1
  Li  Li34  1  -0.46172960  1.21917419  -0.65368027  1
  Li  Li35  1  1.46172960  -0.21917419  -0.65368027  1
  Li  Li36  1  -0.96172960  -0.71917419  -0.65368027  1
  Li  Li37  1  0.96172960  0.71917419  -0.65368027  1
  Li  Li38  1  1.46172960  -0.21917419  0.65368027  1
  Li  Li39  1  -0.46172960  1.21917419  0.65368027  1
  Li  Li40  1  0.34524680  0.11142828  0.50000000  1
  Li  Li41  1  0.65475320  0.88857172  0.50000000  1
  Li  Li42  1  0.15475320  0.61142828  0.50000000  1
  Li  Li43  1  0.84524680  0.38857172  0.50000000  1
  Li  Li44  1  0.83162378  0.86886132  0.00000000  1
  Li  Li45  1  0.16837622  0.13113868  0.00000000  1
  Li  Li46  1  0.66837622  0.36886132  0.00000000  1
  Li  Li47  1  0.33162378  0.63113868  -0.00000000  1
  Li  Li48  1  0.17895602  0.77242390  0.14167847  1
  Li  Li49  1  0.82104398  0.22757610  0.14167847  1
  Li  Li50  1  0.32104398  0.27242390  0.85832153  1
  Li  Li51  1  0.67895602  0.72757610  0.85832153  1
  Li  Li52  1  0.82104398  0.22757610  0.85832153  1
  Li  Li53  1  0.17895602  0.77242390  0.85832153  1
  Li  Li54  1  0.67895602  0.72757610  0.14167847  1
  Li  Li55  1  0.32104398  0.27242390  0.14167847  1
