# generated using pymatgen
data_LiY2Te4As3P2
_symmetry_space_group_name_H-M   'P 1'
_cell_length_a   4.75102446
_cell_length_b   4.87777831
_cell_length_c   6.83160670
_cell_angle_alpha   95.03144819
_cell_angle_beta   100.01368284
_cell_angle_gamma   108.72925390
_symmetry_Int_Tables_number   1
_chemical_formula_structural   LiY2Te4As3P2
_chemical_formula_sum   'Li1 Y2 Te4 As3 P2'
_cell_volume   145.89188492
_cell_formula_units_Z   1
loop_
 _symmetry_equiv_pos_site_id
 _symmetry_equiv_pos_as_xyz
  1  'x, y, z'
loop_
 _atom_site_type_symbol
 _atom_site_label
 _atom_site_symmetry_multiplicity
 _atom_site_fract_x
 _atom_site_fract_y
 _atom_site_fract_z
 _atom_site_occupancy
  Te  Te0  1  0.00000000  0.00000000  0.00000000  1
  Te  Te1  1  0.50000000  0.50000000  0.50000000  1
  Te  Te2  1  0.50000000  0.50000000  0.00000000  1
  Te  Te3  1  0.50000000  0.00000000  0.50000000  1
  Y  Y4  1  0.00000000  0.50000000  0.50000000  1
  Y  Y5  1  0.95809538  0.46511590  0.75106761  1
  P  P6  1  0.58114295  0.67695866  0.18759120  1
  P  P7  1  0.77888192  0.06672202  0.09869017  1
  As  As8  1  0.96172004  0.37385007  0.24309245  1
  As  As9  1  0.48296728  0.25391119  0.81584774  1
  As  As10  1  0.07512627  0.70524887  0.91119335  1
  Li  Li11  1  0.77031351  0.03098282  0.71881516  1
