# generated using pymatgen
data_Li2Y2Te4MoP2
_symmetry_space_group_name_H-M   'P 1'
_cell_length_a   5.01695662
_cell_length_b   5.23115672
_cell_length_c   6.97814612
_cell_angle_alpha   94.94196157
_cell_angle_beta   100.76256488
_cell_angle_gamma   109.84989548
_symmetry_Int_Tables_number   1
_chemical_formula_structural   Li2Y2Te4MoP2
_chemical_formula_sum   'Li2 Y2 Te4 Mo1 P2'
_cell_volume   166.99553931
_cell_formula_units_Z   1
loop_
 _symmetry_equiv_pos_site_id
 _symmetry_equiv_pos_as_xyz
  1  'x, y, z'
loop_
 _atom_site_type_symbol
 _atom_site_label
 _atom_site_symmetry_multiplicity
 _atom_site_fract_x
 _atom_site_fract_y
 _atom_site_fract_z
 _atom_site_occupancy
  Y  Y0  1  0.00000000  0.00000000  0.00000000  1
  Y  Y1  1  0.50000000  0.50000000  0.50000000  1
  P  P2  1  0.50000000  0.50000000  0.00000000  1
  P  P3  1  0.50000000  0.00000000  0.50000000  1
  Mo  Mo4  1  0.00000000  0.50000000  0.50000000  1
  Li  Li5  1  0.02469084  0.57980762  0.13913777  1
  Li  Li6  1  0.81137062  0.99863548  0.14698626  1
  Te  Te7  1  0.74000956  0.10170719  0.02618441  1
  Te  Te8  1  0.49829899  0.12693906  0.66895879  1
  Te  Te9  1  0.47272248  0.72946448  0.08371600  1
  Te  Te10  1  0.28092139  0.28467886  0.41739540  1
