# generated using pymatgen
data_Li2YAsP4
_symmetry_space_group_name_H-M   'P 1'
_cell_length_a   4.31151443
_cell_length_b   4.47887915
_cell_length_c   6.95657958
_cell_angle_alpha   96.67000845
_cell_angle_beta   104.08708578
_cell_angle_gamma   114.65831823
_symmetry_Int_Tables_number   1
_chemical_formula_structural   Li2YAsP4
_chemical_formula_sum   'Li2 Y1 As1 P4'
_cell_volume   114.74727588
_cell_formula_units_Z   1
loop_
 _symmetry_equiv_pos_site_id
 _symmetry_equiv_pos_as_xyz
  1  'x, y, z'
loop_
 _atom_site_type_symbol
 _atom_site_label
 _atom_site_symmetry_multiplicity
 _atom_site_fract_x
 _atom_site_fract_y
 _atom_site_fract_z
 _atom_site_occupancy
  P  P0  1  0.12500000  0.00000000  0.25000000  1
  P  P1  1  0.00000000  0.00000000  0.00000000  1
  P  P2  1  0.37500000  0.00000000  0.25000000  1
  P  P3  1  0.25000000  0.25000000  0.25000000  1
  As  As4  1  0.00000000  0.25000000  0.12500000  1
  Li  Li5  1  0.80410814  0.89440791  0.41279485  1
  Li  Li6  1  0.43776447  0.97130416  0.04673348  1
  Y  Y7  1  0.95380007  0.92349134  0.36237626  1
