# generated using pymatgen
data_Li2Si4Te3F12
_symmetry_space_group_name_H-M   'P 1'
_cell_length_a   7.38737315
_cell_length_b   7.38737315
_cell_length_c   19.10580366
_cell_angle_alpha   90.00000000
_cell_angle_beta   90.00000000
_cell_angle_gamma   90.00000000
_symmetry_Int_Tables_number   1
_chemical_formula_structural   Li2Si4Te3F12
_chemical_formula_sum   'Li8 Si16 Te12 F48'
_cell_volume   1042.66641196
_cell_formula_units_Z   4
loop_
 _symmetry_equiv_pos_site_id
 _symmetry_equiv_pos_as_xyz
  1  'x, y, z'
loop_
 _atom_site_type_symbol
 _atom_site_label
 _atom_site_symmetry_multiplicity
 _atom_site_fract_x
 _atom_site_fract_y
 _atom_site_fract_z
 _atom_site_occupancy
  F  F0  1  0.81480031  0.01795850  0.09974951  1
  F  F1  1  -0.31480031  -0.01795850  0.59974951  1
  F  F2  1  0.23204150  1.56480031  0.34974951  1
  F  F3  1  0.26795850  -0.56480031  0.84974951  1
  F  F4  1  -0.31480031  0.01795850  0.40025049  1
  F  F5  1  0.81480031  -0.01795850  -0.09974951  1
  F  F6  1  0.26795850  1.56480031  0.15025049  1
  F  F7  1  0.23204150  -0.56480031  0.65025049  1
  F  F8  1  -0.81480031  -0.01795850  -0.09974951  1
  F  F9  1  1.31480031  0.01795850  0.40025049  1
  F  F10  1  0.76795850  -0.56480031  0.65025049  1
  F  F11  1  0.73204150  1.56480031  0.15025049  1
  F  F12  1  1.31480031  -0.01795850  0.59974951  1
  F  F13  1  -0.81480031  0.01795850  0.09974951  1
  F  F14  1  0.73204150  -0.56480031  0.84974951  1
  F  F15  1  0.76795850  1.56480031  0.34974951  1
  F  F16  1  1.31480031  0.51795850  0.59974951  1
  F  F17  1  0.18519969  0.48204150  1.09974951  1
  F  F18  1  0.73204150  2.06480031  0.84974951  1
  F  F19  1  0.76795850  -0.06480031  1.34974951  1
  F  F20  1  0.18519969  0.51795850  0.90025049  1
  F  F21  1  1.31480031  0.48204150  0.40025049  1
  F  F22  1  0.76795850  2.06480031  0.65025049  1
  F  F23  1  0.73204150  -0.06480031  1.15025049  1
  F  F24  1  -0.31480031  0.48204150  0.40025049  1
  F  F25  1  1.81480031  0.51795850  0.90025049  1
  F  F26  1  1.26795850  -0.06480031  1.15025049  1
  F  F27  1  1.23204150  2.06480031  0.65025049  1
  F  F28  1  1.81480031  0.48204150  1.09974951  1
  F  F29  1  -0.31480031  0.51795850  0.59974951  1
  F  F30  1  1.23204150  -0.06480031  1.34974951  1
  F  F31  1  1.26795850  2.06480031  0.84974951  1
  F  F32  1  0.35559776  0.60559776  0.87500000  1
  F  F33  1  0.14440224  0.39440224  0.37500000  1
  F  F34  1  0.64440224  0.10559776  0.12500000  1
  F  F35  1  0.85559776  0.89440224  0.62500000  1
  F  F36  1  0.64440224  0.39440224  0.12500000  1
  F  F37  1  0.85559776  0.60559776  0.62500000  1
  F  F38  1  0.35559776  0.89440224  0.87500000  1
  F  F39  1  0.14440224  0.10559776  0.37500000  1
  F  F40  1  0.85559776  0.10559776  0.37500000  1
  F  F41  1  0.64440224  0.89440224  0.87500000  1
  F  F42  1  0.14440224  0.60559776  0.62500000  1
  F  F43  1  0.35559776  0.39440224  0.12500000  1
  F  F44  1  0.14440224  0.89440224  0.62500000  1
  F  F45  1  0.35559776  0.10559776  0.12500000  1
  F  F46  1  0.85559776  0.39440224  0.37500000  1
  F  F47  1  0.64440224  0.60559776  0.87500000  1
  Li  Li48  1  0.00000000  0.00000000  0.00000000  1
  Li  Li49  1  0.50000000  0.00000000  0.50000000  1
  Li  Li50  1  0.25000000  0.75000000  0.25000000  1
  Li  Li51  1  0.25000000  0.25000000  0.75000000  1
  Li  Li52  1  0.50000000  0.50000000  0.50000000  1
  Li  Li53  1  0.00000000  0.50000000  0.00000000  1
  Li  Li54  1  0.75000000  0.25000000  0.75000000  1
  Li  Li55  1  0.75000000  0.75000000  0.25000000  1
  Si  Si56  1  0.00000000  0.93058996  0.39954401  1
  Si  Si57  1  0.50000000  0.06941004  0.89954401  1
  Si  Si58  1  0.31941004  0.75000000  0.64954401  1
  Si  Si59  1  0.18058996  0.25000000  0.14954401  1
  Si  Si60  1  0.50000000  0.93058996  0.10045599  1
  Si  Si61  1  0.00000000  0.06941004  0.60045599  1
  Si  Si62  1  0.18058996  0.75000000  0.85045599  1
  Si  Si63  1  0.31941004  0.25000000  0.35045599  1
  Si  Si64  1  0.50000000  0.43058996  0.89954401  1
  Si  Si65  1  0.00000000  0.56941004  0.39954401  1
  Si  Si66  1  0.81941004  0.25000000  0.14954401  1
  Si  Si67  1  0.68058996  0.75000000  0.64954401  1
  Si  Si68  1  0.00000000  0.43058996  0.60045599  1
  Si  Si69  1  0.50000000  0.56941004  0.10045599  1
  Si  Si70  1  0.68058996  0.25000000  0.35045599  1
  Si  Si71  1  0.81941004  0.75000000  0.85045599  1
  Te  Te72  1  0.00000000  0.25000000  0.92108540  1
  Te  Te73  1  0.00000000  0.75000000  0.17108540  1
  Te  Te74  1  0.50000000  0.25000000  0.57891460  1
  Te  Te75  1  0.50000000  0.75000000  0.32891460  1
  Te  Te76  1  0.50000000  0.75000000  0.42108540  1
  Te  Te77  1  0.50000000  0.25000000  0.67108540  1
  Te  Te78  1  0.00000000  0.75000000  0.07891460  1
  Te  Te79  1  0.00000000  0.25000000  0.82891460  1
  Te  Te80  1  0.00000000  0.25000000  0.37500000  1
  Te  Te81  1  0.00000000  0.75000000  0.62500000  1
  Te  Te82  1  0.50000000  0.75000000  0.87500000  1
  Te  Te83  1  0.50000000  0.25000000  0.12500000  1
