# generated using pymatgen
data_LiF
_symmetry_space_group_name_H-M   'P 1'
_cell_length_a   10.77221903
_cell_length_b   10.77221903
_cell_length_c   7.52917934
_cell_angle_alpha   90.00000000
_cell_angle_beta   90.00000000
_cell_angle_gamma   120.00000000
_symmetry_Int_Tables_number   1
_chemical_formula_structural   LiF
_chemical_formula_sum   'Li32 F32'
_cell_volume   756.63882845
_cell_formula_units_Z   32
loop_
 _symmetry_equiv_pos_site_id
 _symmetry_equiv_pos_as_xyz
  1  'x, y, z'
loop_
 _atom_site_type_symbol
 _atom_site_label
 _atom_site_symmetry_multiplicity
 _atom_site_fract_x
 _atom_site_fract_y
 _atom_site_fract_z
 _atom_site_occupancy
  F  F0  1  0.66666667  0.33333333  0.50000000  1
  F  F1  1  0.96256130  0.67634936  0.87116732  1
  F  F2  1  0.32365064  0.28621194  0.87116732  1
  F  F3  1  0.71378806  0.03743870  0.87116732  1
  F  F4  1  0.32365064  0.03743870  0.12883268  1
  F  F5  1  0.71378806  0.67634936  0.12883268  1
  F  F6  1  0.96256130  0.28621194  0.12883268  1
  F  F7  1  0.58135108  0.02978212  0.23645024  1
  F  F8  1  0.97021788  0.55156896  0.23645024  1
  F  F9  1  0.44843104  0.41864892  0.23645024  1
  F  F10  1  0.97021788  0.41864892  0.76354976  1
  F  F11  1  0.44843104  0.02978212  0.76354976  1
  F  F12  1  0.58135108  0.55156896  0.76354976  1
  F  F13  1  0.56738685  0.93191582  0.56291150  1
  F  F14  1  0.06808418  0.63547103  0.56291150  1
  F  F15  1  0.36452897  0.43261315  0.56291150  1
  F  F16  1  0.06808418  0.43261315  0.43708850  1
  F  F17  1  0.36452897  0.93191582  0.43708850  1
  F  F18  1  0.56738685  0.63547103  0.43708850  1
  F  F19  1  0.57505122  0.42494878  0.00000000  1
  F  F20  1  0.57505122  0.15010244  -0.00000000  1
  F  F21  1  0.84989756  0.42494878  -0.00000000  1
  F  F22  1  0.00000000  0.00000000  0.50000000  1
  F  F23  1  0.78674281  0.12735572  0.72912681  1
  F  F24  1  0.87264428  0.65938709  0.72912681  1
  F  F25  1  0.34061291  0.21325719  0.72912681  1
  F  F26  1  0.87264428  0.21325719  0.27087319  1
  F  F27  1  0.34061291  0.12735572  0.27087319  1
  F  F28  1  0.78674281  0.65938709  0.27087319  1
  F  F29  1  0.62134477  0.37865523  0.50000000  1
  F  F30  1  0.62134477  0.24268955  0.50000000  1
  F  F31  1  0.75731045  0.37865523  0.50000000  1
  Li  Li32  1  0.55667452  0.27838050  0.37123939  1
  Li  Li33  1  -0.27838050  0.27829402  0.37123939  1
  Li  Li34  1  -0.27829402  -0.55667452  0.37123939  1
  Li  Li35  1  -0.27838050  -0.55667452  -0.37123939  1
  Li  Li36  1  -0.27829402  0.27838050  -0.37123939  1
  Li  Li37  1  0.55667452  0.27829402  -0.37123939  1
  Li  Li38  1  0.68465108  0.73640408  0.25726645  1
  Li  Li39  1  0.26359592  0.94824700  0.25726645  1
  Li  Li40  1  0.05175300  0.31534892  0.25726645  1
  Li  Li41  1  0.26359592  0.31534892  0.74273355  1
  Li  Li42  1  0.05175300  0.73640408  0.74273355  1
  Li  Li43  1  0.68465108  0.94824700  0.74273355  1
  Li  Li44  1  0.66666667  0.33333333  0.00000000  1
  Li  Li45  1  0.02979018  0.46109566  0.87537750  1
  Li  Li46  1  0.53890434  0.56869452  0.87537750  1
  Li  Li47  1  0.43130548  0.97020982  0.87537750  1
  Li  Li48  1  0.53890434  0.97020982  0.12462250  1
  Li  Li49  1  0.43130548  0.46109566  0.12462250  1
  Li  Li50  1  0.02979018  0.56869452  0.12462250  1
  Li  Li51  1  0.00000000  0.00000000  0.27188091  1
  Li  Li52  1  0.00000000  0.00000000  0.72811909  1
  Li  Li53  1  0.01577049  0.25163013  0.03231485  1
  Li  Li54  1  0.74836987  0.76414035  0.03231485  1
  Li  Li55  1  0.23585965  0.98422951  0.03231485  1
  Li  Li56  1  0.74836987  0.98422951  0.96768515  1
  Li  Li57  1  0.23585965  0.25163013  0.96768515  1
  Li  Li58  1  0.01577049  0.76414035  0.96768515  1
  Li  Li59  1  0.89492441  0.10507559  0.50000000  1
  Li  Li60  1  0.89492441  0.78984882  0.50000000  1
  Li  Li61  1  0.21015118  0.10507559  0.50000000  1
  Li  Li62  1  0.33333333  0.66666667  0.22845969  1
  Li  Li63  1  0.33333333  0.66666667  0.77154031  1
