# generated using pymatgen
data_LiF
_symmetry_space_group_name_H-M   'P 1'
_cell_length_a   4.45918900
_cell_length_b   4.49299518
_cell_length_c   18.06023835
_cell_angle_alpha   90.00000000
_cell_angle_beta   90.00000000
_cell_angle_gamma   90.00000000
_symmetry_Int_Tables_number   1
_chemical_formula_structural   LiF
_chemical_formula_sum   'Li22 F22'
_cell_volume   361.83894660
_cell_formula_units_Z   22
loop_
 _symmetry_equiv_pos_site_id
 _symmetry_equiv_pos_as_xyz
  1  'x, y, z'
loop_
 _atom_site_type_symbol
 _atom_site_label
 _atom_site_symmetry_multiplicity
 _atom_site_fract_x
 _atom_site_fract_y
 _atom_site_fract_z
 _atom_site_occupancy
  F  F0  1  0.00000000  0.50000000  0.02213565  1
  F  F1  1  0.50000000  0.00000000  0.47786435  1
  F  F2  1  0.00000000  0.50000000  0.97786435  1
  F  F3  1  0.50000000  0.00000000  0.52213565  1
  F  F4  1  0.61472951  0.04126181  0.65256647  1
  F  F5  1  -0.61472951  -0.04126181  0.65256647  1
  F  F6  1  -0.11472951  0.54126181  -0.15256647  1
  F  F7  1  1.11472951  0.45873819  -0.15256647  1
  F  F8  1  -0.61472951  -0.04126181  -0.65256647  1
  F  F9  1  0.61472951  0.04126181  -0.65256647  1
  F  F10  1  1.11472951  0.45873819  1.15256647  1
  F  F11  1  -0.11472951  0.54126181  1.15256647  1
  F  F12  1  0.04670367  0.15856401  0.00000000  1
  F  F13  1  0.95329633  0.84143599  -0.00000000  1
  F  F14  1  0.45329633  0.65856401  0.50000000  1
  F  F15  1  0.54670367  0.34143599  0.50000000  1
  F  F16  1  0.00000000  0.50000000  0.82592716  1
  F  F17  1  0.50000000  0.00000000  0.67407284  1
  F  F18  1  0.00000000  0.50000000  0.17407284  1
  F  F19  1  0.50000000  0.00000000  0.32592716  1
  F  F20  1  0.00000000  0.00000000  0.50000000  1
  F  F21  1  0.50000000  0.50000000  0.00000000  1
  Li  Li22  1  0.80947039  0.47679861  0.10145399  1
  Li  Li23  1  0.19052961  0.52320139  0.10145399  1
  Li  Li24  1  0.69052961  0.97679861  0.39854601  1
  Li  Li25  1  0.30947039  0.02320139  0.39854601  1
  Li  Li26  1  0.19052961  0.52320139  0.89854601  1
  Li  Li27  1  0.80947039  0.47679861  0.89854601  1
  Li  Li28  1  0.30947039  0.02320139  0.60145399  1
  Li  Li29  1  0.69052961  0.97679861  0.60145399  1
  Li  Li30  1  0.75696552  0.38313235  0.36611330  1
  Li  Li31  1  0.24303448  0.61686765  0.36611330  1
  Li  Li32  1  0.74303448  0.88313235  0.13388670  1
  Li  Li33  1  0.25696552  0.11686765  0.13388670  1
  Li  Li34  1  0.24303448  0.61686765  0.63388670  1
  Li  Li35  1  0.75696552  0.38313235  0.63388670  1
  Li  Li36  1  0.25696552  0.11686765  0.86611330  1
  Li  Li37  1  0.74303448  0.88313235  0.86611330  1
  Li  Li38  1  0.00000000  0.50000000  0.50000000  1
  Li  Li39  1  0.50000000  0.00000000  0.00000000  1
  Li  Li40  1  0.00000000  0.00000000  0.63798807  1
  Li  Li41  1  0.50000000  0.50000000  0.86201193  1
  Li  Li42  1  0.00000000  0.00000000  0.36201193  1
  Li  Li43  1  0.50000000  0.50000000  0.13798807  1
