# generated using pymatgen
data_LiF
_symmetry_space_group_name_H-M   'P 1'
_cell_length_a   15.50578681
_cell_length_b   15.50578681
_cell_length_c   4.11922021
_cell_angle_alpha   90.00000000
_cell_angle_beta   90.00000000
_cell_angle_gamma   120.00000000
_symmetry_Int_Tables_number   1
_chemical_formula_structural   LiF
_chemical_formula_sum   'Li36 F36'
_cell_volume   857.69575126
_cell_formula_units_Z   36
loop_
 _symmetry_equiv_pos_site_id
 _symmetry_equiv_pos_as_xyz
  1  'x, y, z'
loop_
 _atom_site_type_symbol
 _atom_site_label
 _atom_site_symmetry_multiplicity
 _atom_site_fract_x
 _atom_site_fract_y
 _atom_site_fract_z
 _atom_site_occupancy
  F  F0  1  0.00000000  0.00000000  0.42180669  1
  F  F1  1  0.00000000  0.00000000  0.07819331  1
  F  F2  1  0.00000000  0.00000000  0.57819331  1
  F  F3  1  0.00000000  0.00000000  0.92180669  1
  F  F4  1  0.66666667  0.33333333  0.75514002  1
  F  F5  1  0.66666667  0.33333333  0.41152665  1
  F  F6  1  0.66666667  0.33333333  0.91152665  1
  F  F7  1  0.66666667  0.33333333  0.25514002  1
  F  F8  1  0.33333333  0.66666667  0.08847335  1
  F  F9  1  0.33333333  0.66666667  0.74485998  1
  F  F10  1  0.33333333  0.66666667  0.24485998  1
  F  F11  1  0.33333333  0.66666667  0.58847335  1
  F  F12  1  0.50000000  0.00000000  -0.00000000  1
  F  F13  1  0.00000000  0.50000000  0.00000000  1
  F  F14  1  0.50000000  0.50000000  -0.00000000  1
  F  F15  1  0.00000000  0.50000000  0.50000000  1
  F  F16  1  0.50000000  0.00000000  0.50000000  1
  F  F17  1  0.50000000  0.50000000  0.50000000  1
  F  F18  1  0.16666667  0.33333333  0.33333333  1
  F  F19  1  0.66666667  0.83333333  0.33333333  1
  F  F20  1  0.16666667  0.83333333  0.33333333  1
  F  F21  1  0.66666667  0.83333333  0.83333333  1
  F  F22  1  0.16666667  0.33333333  0.83333333  1
  F  F23  1  0.16666667  0.83333333  0.83333333  1
  F  F24  1  0.83333333  0.66666667  0.66666667  1
  F  F25  1  0.33333333  0.16666667  0.66666667  1
  F  F26  1  0.83333333  0.16666667  0.66666667  1
  F  F27  1  0.33333333  0.16666667  0.16666667  1
  F  F28  1  0.83333333  0.66666667  0.16666667  1
  F  F29  1  0.83333333  0.16666667  0.16666667  1
  F  F30  1  0.00000000  0.00000000  0.25000000  1
  F  F31  1  0.00000000  0.00000000  0.75000000  1
  F  F32  1  0.66666667  0.33333333  0.58333333  1
  F  F33  1  0.66666667  0.33333333  0.08333333  1
  F  F34  1  0.33333333  0.66666667  0.91666667  1
  F  F35  1  0.33333333  0.66666667  0.41666667  1
  Li  Li36  1  0.70111204  0.53818979  0.35280892  1
  Li  Li37  1  -0.53818979  0.16292225  0.35280892  1
  Li  Li38  1  -0.16292225  -0.70111204  0.35280892  1
  Li  Li39  1  0.53818979  0.70111204  0.14719108  1
  Li  Li40  1  0.16292225  -0.53818979  0.14719108  1
  Li  Li41  1  -0.70111204  -0.16292225  0.14719108  1
  Li  Li42  1  -0.70111204  -0.53818979  -0.35280892  1
  Li  Li43  1  0.53818979  -0.16292225  -0.35280892  1
  Li  Li44  1  0.16292225  0.70111204  -0.35280892  1
  Li  Li45  1  -0.53818979  -0.70111204  0.85280892  1
  Li  Li46  1  -0.16292225  0.53818979  0.85280892  1
  Li  Li47  1  0.70111204  0.16292225  0.85280892  1
  Li  Li48  1  1.36777870  0.87152312  0.68614225  1
  Li  Li49  1  0.12847688  0.49625558  0.68614225  1
  Li  Li50  1  0.50374442  -0.36777870  0.68614225  1
  Li  Li51  1  1.20485646  1.03444537  0.48052442  1
  Li  Li52  1  0.82958891  -0.20485646  0.48052442  1
  Li  Li53  1  -0.03444537  0.17041109  0.48052442  1
  Li  Li54  1  -0.03444537  -0.20485646  -0.01947558  1
  Li  Li55  1  1.20485646  0.17041109  -0.01947558  1
  Li  Li56  1  0.82958891  1.03444537  -0.01947558  1
  Li  Li57  1  0.12847688  -0.36777870  1.18614225  1
  Li  Li58  1  0.50374442  0.87152312  1.18614225  1
  Li  Li59  1  1.36777870  0.49625558  1.18614225  1
  Li  Li60  1  1.03444537  1.20485646  1.01947558  1
  Li  Li61  1  -0.20485646  0.82958891  1.01947558  1
  Li  Li62  1  0.17041109  -0.03444537  1.01947558  1
  Li  Li63  1  0.87152312  1.36777870  0.81385775  1
  Li  Li64  1  0.49625558  0.12847688  0.81385775  1
  Li  Li65  1  -0.36777870  0.50374442  0.81385775  1
  Li  Li66  1  -0.36777870  0.12847688  0.31385775  1
  Li  Li67  1  0.87152312  0.50374442  0.31385775  1
  Li  Li68  1  0.49625558  1.36777870  0.31385775  1
  Li  Li69  1  -0.20485646  -0.03444537  1.51947558  1
  Li  Li70  1  0.17041109  1.20485646  1.51947558  1
  Li  Li71  1  1.03444537  0.82958891  1.51947558  1
