# generated using pymatgen
data_LiF
_symmetry_space_group_name_H-M   'P 1'
_cell_length_a   6.58095545
_cell_length_b   7.93761153
_cell_length_c   7.51407771
_cell_angle_alpha   90.00000000
_cell_angle_beta   90.00000000
_cell_angle_gamma   90.00000000
_symmetry_Int_Tables_number   1
_chemical_formula_structural   LiF
_chemical_formula_sum   'Li24 F24'
_cell_volume   392.51338757
_cell_formula_units_Z   24
loop_
 _symmetry_equiv_pos_site_id
 _symmetry_equiv_pos_as_xyz
  1  'x, y, z'
loop_
 _atom_site_type_symbol
 _atom_site_label
 _atom_site_symmetry_multiplicity
 _atom_site_fract_x
 _atom_site_fract_y
 _atom_site_fract_z
 _atom_site_occupancy
  F  F0  1  0.17693936  0.08939580  0.27183962  1
  F  F1  1  0.32306064  0.91060420  0.77183962  1
  F  F2  1  0.82306064  0.58939580  0.72816038  1
  F  F3  1  0.67693936  0.41060420  0.22816038  1
  F  F4  1  0.82306064  0.91060420  0.72816038  1
  F  F5  1  0.67693936  0.08939580  0.22816038  1
  F  F6  1  0.17693936  0.41060420  0.27183962  1
  F  F7  1  0.32306064  0.58939580  0.77183962  1
  F  F8  1  0.19339859  0.25000000  0.64041683  1
  F  F9  1  0.30660141  0.75000000  0.14041683  1
  F  F10  1  0.80660141  0.75000000  0.35958317  1
  F  F11  1  0.69339859  0.25000000  0.85958317  1
  F  F12  1  0.00000000  0.00000000  0.50000000  1
  F  F13  1  0.50000000  0.00000000  0.00000000  1
  F  F14  1  0.00000000  0.50000000  0.50000000  1
  F  F15  1  0.50000000  0.50000000  0.00000000  1
  F  F16  1  0.17840226  0.49998390  0.59969790  1
  F  F17  1  0.32159774  0.50001610  0.09969790  1
  F  F18  1  0.82159774  0.99998390  0.40030210  1
  F  F19  1  0.67840226  0.00001610  0.90030210  1
  F  F20  1  0.82159774  0.50001610  0.40030210  1
  F  F21  1  0.67840226  0.49998390  0.90030210  1
  F  F22  1  0.17840226  0.00001610  0.59969790  1
  F  F23  1  0.32159774  0.99998390  0.09969790  1
  Li  Li24  1  0.82310450  0.87292749  0.32091455  1
  Li  Li25  1  -0.32310450  -0.87292749  0.82091455  1
  Li  Li26  1  -0.82310450  1.37292749  -0.32091455  1
  Li  Li27  1  1.32310450  -0.37292749  0.17908545  1
  Li  Li28  1  -0.82310450  -0.87292749  -0.32091455  1
  Li  Li29  1  1.32310450  0.87292749  0.17908545  1
  Li  Li30  1  0.82310450  -0.37292749  0.32091455  1
  Li  Li31  1  -0.32310450  1.37292749  0.82091455  1
  Li  Li32  1  0.79201939  0.09164780  0.12956743  1
  Li  Li33  1  0.70798061  0.90835220  0.62956743  1
  Li  Li34  1  0.20798061  0.59164780  0.87043257  1
  Li  Li35  1  0.29201939  0.40835220  0.37043257  1
  Li  Li36  1  0.20798061  0.90835220  0.87043257  1
  Li  Li37  1  0.29201939  0.09164780  0.37043257  1
  Li  Li38  1  0.79201939  0.40835220  0.12956743  1
  Li  Li39  1  0.70798061  0.59164780  0.62956743  1
  Li  Li40  1  0.72455698  0.25000000  0.42171739  1
  Li  Li41  1  0.77544302  0.75000000  0.92171739  1
  Li  Li42  1  0.27544302  0.75000000  0.57828261  1
  Li  Li43  1  0.22455698  0.25000000  0.07828261  1
  Li  Li44  1  0.54119735  0.25000000  0.19672618  1
  Li  Li45  1  0.95880265  0.75000000  0.69672618  1
  Li  Li46  1  0.45880265  0.75000000  0.80327382  1
  Li  Li47  1  0.04119735  0.25000000  0.30327382  1
