# generated using pymatgen
data_LiF
_symmetry_space_group_name_H-M   'P 1'
_cell_length_a   17.32125069
_cell_length_b   17.32125069
_cell_length_c   12.11604915
_cell_angle_alpha   90.00000000
_cell_angle_beta   90.00000000
_cell_angle_gamma   120.00000000
_symmetry_Int_Tables_number   1
_chemical_formula_structural   LiF
_chemical_formula_sum   'Li108 F108'
_cell_volume   3148.11184140
_cell_formula_units_Z   108
loop_
 _symmetry_equiv_pos_site_id
 _symmetry_equiv_pos_as_xyz
  1  'x, y, z'
loop_
 _atom_site_type_symbol
 _atom_site_label
 _atom_site_symmetry_multiplicity
 _atom_site_fract_x
 _atom_site_fract_y
 _atom_site_fract_z
 _atom_site_occupancy
  F  F0  1  0.99223393  0.81151190  0.66813749  1
  F  F1  1  0.18848810  0.18072203  0.66813749  1
  F  F2  1  0.81927797  0.00776607  0.66813749  1
  F  F3  1  0.81151190  0.99223393  0.83186251  1
  F  F4  1  0.18072203  0.18848810  0.83186251  1
  F  F5  1  0.00776607  0.81927797  0.83186251  1
  F  F6  1  0.00776607  0.18848810  0.33186251  1
  F  F7  1  0.81151190  0.81927797  0.33186251  1
  F  F8  1  0.18072203  0.99223393  0.33186251  1
  F  F9  1  0.18848810  0.00776607  0.16813749  1
  F  F10  1  0.81927797  0.81151190  0.16813749  1
  F  F11  1  0.99223393  0.18072203  0.16813749  1
  F  F12  1  0.65890060  0.14484524  0.00147083  1
  F  F13  1  0.85515476  0.51405536  0.00147083  1
  F  F14  1  0.48594464  0.34109940  0.00147083  1
  F  F15  1  0.47817857  0.32556726  0.16519584  1
  F  F16  1  0.84738870  0.52182143  0.16519584  1
  F  F17  1  0.67443274  0.15261130  0.16519584  1
  F  F18  1  0.67443274  0.52182143  0.66519584  1
  F  F19  1  0.47817857  0.15261130  0.66519584  1
  F  F20  1  0.84738870  0.32556726  0.66519584  1
  F  F21  1  0.85515476  0.34109940  0.50147083  1
  F  F22  1  0.48594464  0.14484524  0.50147083  1
  F  F23  1  0.65890060  0.51405536  0.50147083  1
  F  F24  1  0.32556726  0.47817857  0.33480416  1
  F  F25  1  0.52182143  0.84738870  0.33480416  1
  F  F26  1  0.15261130  0.67443274  0.33480416  1
  F  F27  1  0.14484524  0.65890060  0.49852917  1
  F  F28  1  0.51405536  0.85515476  0.49852917  1
  F  F29  1  0.34109940  0.48594464  0.49852917  1
  F  F30  1  0.34109940  0.85515476  0.99852917  1
  F  F31  1  0.14484524  0.48594464  0.99852917  1
  F  F32  1  0.51405536  0.65890060  0.99852917  1
  F  F33  1  0.52182143  0.67443274  0.83480416  1
  F  F34  1  0.15261130  0.47817857  0.83480416  1
  F  F35  1  0.32556726  0.84738870  0.83480416  1
  F  F36  1  0.00000000  0.00000000  0.00000000  1
  F  F37  1  0.00000000  0.00000000  0.50000000  1
  F  F38  1  0.66666667  0.33333333  0.33333333  1
  F  F39  1  0.66666667  0.33333333  0.83333333  1
  F  F40  1  0.33333333  0.66666667  0.66666667  1
  F  F41  1  0.33333333  0.66666667  0.16666667  1
  F  F42  1  0.71855795  0.97222374  0.01880585  1
  F  F43  1  0.02777626  0.74633420  0.01880585  1
  F  F44  1  0.25366580  0.28144205  0.01880585  1
  F  F45  1  0.97222374  0.71855795  0.48119415  1
  F  F46  1  0.74633420  0.02777626  0.48119415  1
  F  F47  1  0.28144205  0.25366580  0.48119415  1
  F  F48  1  0.28144205  0.02777626  0.98119415  1
  F  F49  1  0.97222374  0.25366580  0.98119415  1
  F  F50  1  0.74633420  0.71855795  0.98119415  1
  F  F51  1  0.02777626  0.28144205  0.51880585  1
  F  F52  1  0.25366580  0.97222374  0.51880585  1
  F  F53  1  0.71855795  0.74633420  0.51880585  1
  F  F54  1  0.38522461  0.30555708  0.35213918  1
  F  F55  1  0.69444292  0.07966754  0.35213918  1
  F  F56  1  0.92033246  0.61477539  0.35213918  1
  F  F57  1  0.63889041  0.05189128  0.81452749  1
  F  F58  1  0.41300087  0.36110959  0.81452749  1
  F  F59  1  0.94810872  0.58699913  0.81452749  1
  F  F60  1  0.94810872  0.36110959  0.31452749  1
  F  F61  1  0.63889041  0.58699913  0.31452749  1
  F  F62  1  0.41300087  0.05189128  0.31452749  1
  F  F63  1  0.69444292  0.61477539  0.85213918  1
  F  F64  1  0.92033246  0.30555708  0.85213918  1
  F  F65  1  0.38522461  0.07966754  0.85213918  1
  F  F66  1  0.05189128  0.63889041  0.68547251  1
  F  F67  1  0.36110959  0.41300087  0.68547251  1
  F  F68  1  0.58699913  0.94810872  0.68547251  1
  F  F69  1  0.30555708  0.38522461  0.14786082  1
  F  F70  1  0.07966754  0.69444292  0.14786082  1
  F  F71  1  0.61477539  0.92033246  0.14786082  1
  F  F72  1  0.61477539  0.69444292  0.64786082  1
  F  F73  1  0.30555708  0.92033246  0.64786082  1
  F  F74  1  0.07966754  0.38522461  0.64786082  1
  F  F75  1  0.36110959  0.94810872  0.18547251  1
  F  F76  1  0.58699913  0.63889041  0.18547251  1
  F  F77  1  0.05189128  0.41300087  0.18547251  1
  F  F78  1  0.84124371  0.00000000  0.25000000  1
  F  F79  1  0.00000000  0.84124371  0.25000000  1
  F  F80  1  0.15875629  0.15875629  0.25000000  1
  F  F81  1  0.15875629  0.00000000  0.75000000  1
  F  F82  1  0.00000000  0.15875629  0.75000000  1
  F  F83  1  0.84124371  0.84124371  0.75000000  1
  F  F84  1  0.50791038  0.33333333  0.58333333  1
  F  F85  1  0.66666667  0.17457705  0.58333333  1
  F  F86  1  0.82542295  0.49208962  0.58333333  1
  F  F87  1  0.82542295  0.33333333  0.08333333  1
  F  F88  1  0.66666667  0.49208962  0.08333333  1
  F  F89  1  0.50791038  0.17457705  0.08333333  1
  F  F90  1  0.17457705  0.66666667  0.91666667  1
  F  F91  1  0.33333333  0.50791038  0.91666667  1
  F  F92  1  0.49208962  0.82542295  0.91666667  1
  F  F93  1  0.49208962  0.66666667  0.41666667  1
  F  F94  1  0.33333333  0.82542295  0.41666667  1
  F  F95  1  0.17457705  0.50791038  0.41666667  1
  F  F96  1  0.00000000  0.00000000  0.94339845  1
  F  F97  1  0.00000000  0.00000000  0.55660155  1
  F  F98  1  0.00000000  0.00000000  0.05660155  1
  F  F99  1  0.00000000  0.00000000  0.44339845  1
  F  F100  1  0.66666667  0.33333333  0.27673178  1
  F  F101  1  0.66666667  0.33333333  0.88993489  1
  F  F102  1  0.66666667  0.33333333  0.38993489  1
  F  F103  1  0.66666667  0.33333333  0.77673178  1
  F  F104  1  0.33333333  0.66666667  0.61006511  1
  F  F105  1  0.33333333  0.66666667  0.22326822  1
  F  F106  1  0.33333333  0.66666667  0.72326822  1
  F  F107  1  0.33333333  0.66666667  0.11006511  1
  Li  Li108  1  0.04475505  0.59858331  0.28217793  1
  Li  Li109  1  -0.59858331  -0.55382826  0.28217793  1
  Li  Li110  1  0.55382826  -0.04475505  0.28217793  1
  Li  Li111  1  0.59858331  0.04475505  0.21782207  1
  Li  Li112  1  -0.55382826  -0.59858331  0.21782207  1
  Li  Li113  1  -0.04475505  0.55382826  0.21782207  1
  Li  Li114  1  -0.04475505  -0.59858331  -0.28217793  1
  Li  Li115  1  0.59858331  0.55382826  -0.28217793  1
  Li  Li116  1  -0.55382826  0.04475505  -0.28217793  1
  Li  Li117  1  -0.59858331  -0.04475505  0.78217793  1
  Li  Li118  1  0.55382826  0.59858331  0.78217793  1
  Li  Li119  1  0.04475505  -0.55382826  0.78217793  1
  Li  Li120  1  0.71142172  0.93191664  0.61551126  1
  Li  Li121  1  0.06808336  -0.22049492  0.61551126  1
  Li  Li122  1  1.22049492  0.28857828  0.61551126  1
  Li  Li123  1  1.26524997  0.37808838  0.55115540  1
  Li  Li124  1  0.11283841  -0.26524997  0.55115540  1
  Li  Li125  1  0.62191162  0.88716159  0.55115540  1
  Li  Li126  1  0.62191162  -0.26524997  0.05115540  1
  Li  Li127  1  1.26524997  0.88716159  0.05115540  1
  Li  Li128  1  0.11283841  0.37808838  0.05115540  1
  Li  Li129  1  0.06808336  0.28857828  1.11551126  1
  Li  Li130  1  1.22049492  0.93191664  1.11551126  1
  Li  Li131  1  0.71142172  -0.22049492  1.11551126  1
  Li  Li132  1  0.37808838  1.26524997  0.94884460  1
  Li  Li133  1  -0.26524997  0.11283841  0.94884460  1
  Li  Li134  1  0.88716159  0.62191162  0.94884460  1
  Li  Li135  1  0.93191664  0.71142172  0.88448874  1
  Li  Li136  1  -0.22049492  0.06808336  0.88448874  1
  Li  Li137  1  0.28857828  1.22049492  0.88448874  1
  Li  Li138  1  0.28857828  0.06808336  0.38448874  1
  Li  Li139  1  0.93191664  1.22049492  0.38448874  1
  Li  Li140  1  -0.22049492  0.71142172  0.38448874  1
  Li  Li141  1  -0.26524997  0.62191162  1.44884460  1
  Li  Li142  1  0.88716159  1.26524997  1.44884460  1
  Li  Li143  1  0.37808838  0.11283841  1.44884460  1
  Li  Li144  1  0.40367107  0.90563249  0.55503123  1
  Li  Li145  1  0.09436751  0.49803858  0.55503123  1
  Li  Li146  1  0.50196142  0.59632893  0.55503123  1
  Li  Li147  1  0.90563249  0.40367107  0.94496877  1
  Li  Li148  1  0.49803858  0.09436751  0.94496877  1
  Li  Li149  1  0.59632893  0.50196142  0.94496877  1
  Li  Li150  1  0.59632893  0.09436751  0.44496877  1
  Li  Li151  1  0.90563249  0.50196142  0.44496877  1
  Li  Li152  1  0.49803858  0.40367107  0.44496877  1
  Li  Li153  1  0.09436751  0.59632893  0.05503123  1
  Li  Li154  1  0.50196142  0.90563249  0.05503123  1
  Li  Li155  1  0.40367107  0.49803858  0.05503123  1
  Li  Li156  1  0.07033774  0.23896582  0.88836456  1
  Li  Li157  1  0.76103418  0.83137192  0.88836456  1
  Li  Li158  1  0.16862808  0.92966226  0.88836456  1
  Li  Li159  1  0.57229915  0.73700440  0.27830210  1
  Li  Li160  1  0.16470525  0.42770085  0.27830210  1
  Li  Li161  1  0.26299560  0.83529475  0.27830210  1
  Li  Li162  1  0.26299560  0.42770085  0.77830210  1
  Li  Li163  1  0.57229915  0.83529475  0.77830210  1
  Li  Li164  1  0.16470525  0.73700440  0.77830210  1
  Li  Li165  1  0.76103418  0.92966226  0.38836456  1
  Li  Li166  1  0.16862808  0.23896582  0.38836456  1
  Li  Li167  1  0.07033774  0.83137192  0.38836456  1
  Li  Li168  1  0.73700440  0.57229915  0.22169790  1
  Li  Li169  1  0.42770085  0.16470525  0.22169790  1
  Li  Li170  1  0.83529475  0.26299560  0.22169790  1
  Li  Li171  1  0.23896582  0.07033774  0.61163544  1
  Li  Li172  1  0.83137192  0.76103418  0.61163544  1
  Li  Li173  1  0.92966226  0.16862808  0.61163544  1
  Li  Li174  1  0.92966226  0.76103418  0.11163544  1
  Li  Li175  1  0.23896582  0.16862808  0.11163544  1
  Li  Li176  1  0.83137192  0.07033774  0.11163544  1
  Li  Li177  1  0.42770085  0.26299560  0.72169790  1
  Li  Li178  1  0.83529475  0.57229915  0.72169790  1
  Li  Li179  1  0.73700440  0.16470525  0.72169790  1
  Li  Li180  1  0.14920484  0.78130932  0.21946245  1
  Li  Li181  1  0.21869068  0.36789552  0.21946245  1
  Li  Li182  1  0.63210448  0.85079516  0.21946245  1
  Li  Li183  1  0.78130932  0.14920484  0.28053755  1
  Li  Li184  1  0.36789552  0.21869068  0.28053755  1
  Li  Li185  1  0.85079516  0.63210448  0.28053755  1
  Li  Li186  1  0.85079516  0.21869068  0.78053755  1
  Li  Li187  1  0.78130932  0.63210448  0.78053755  1
  Li  Li188  1  0.36789552  0.14920484  0.78053755  1
  Li  Li189  1  0.21869068  0.85079516  0.71946245  1
  Li  Li190  1  0.63210448  0.78130932  0.71946245  1
  Li  Li191  1  0.14920484  0.36789552  0.71946245  1
  Li  Li192  1  0.81587151  0.11464266  0.55279578  1
  Li  Li193  1  0.88535734  0.70122885  0.55279578  1
  Li  Li194  1  0.29877115  0.18412849  0.55279578  1
  Li  Li195  1  0.44797599  0.48253818  0.61387088  1
  Li  Li196  1  0.03456219  0.55202401  0.61387088  1
  Li  Li197  1  0.51746182  0.96543781  0.61387088  1
  Li  Li198  1  0.51746182  0.55202401  0.11387088  1
  Li  Li199  1  0.44797599  0.96543781  0.11387088  1
  Li  Li200  1  0.03456219  0.48253818  0.11387088  1
  Li  Li201  1  0.88535734  0.18412849  0.05279578  1
  Li  Li202  1  0.29877115  0.11464266  0.05279578  1
  Li  Li203  1  0.81587151  0.70122885  0.05279578  1
  Li  Li204  1  0.48253818  0.44797599  0.88612912  1
  Li  Li205  1  0.55202401  0.03456219  0.88612912  1
  Li  Li206  1  0.96543781  0.51746182  0.88612912  1
  Li  Li207  1  0.11464266  0.81587151  0.94720422  1
  Li  Li208  1  0.70122885  0.88535734  0.94720422  1
  Li  Li209  1  0.18412849  0.29877115  0.94720422  1
  Li  Li210  1  0.18412849  0.88535734  0.44720422  1
  Li  Li211  1  0.11464266  0.29877115  0.44720422  1
  Li  Li212  1  0.70122885  0.81587151  0.44720422  1
  Li  Li213  1  0.55202401  0.51746182  0.38612912  1
  Li  Li214  1  0.96543781  0.44797599  0.38612912  1
  Li  Li215  1  0.48253818  0.03456219  0.38612912  1
