# generated using pymatgen
data_LiF
_symmetry_space_group_name_H-M   'P 1'
_cell_length_a   6.71933063
_cell_length_b   16.75892353
_cell_length_c   6.27676442
_cell_angle_alpha   90.00000000
_cell_angle_beta   90.00000000
_cell_angle_gamma   90.00000000
_symmetry_Int_Tables_number   1
_chemical_formula_structural   LiF
_chemical_formula_sum   'Li24 F24'
_cell_volume   706.81858377
_cell_formula_units_Z   24
loop_
 _symmetry_equiv_pos_site_id
 _symmetry_equiv_pos_as_xyz
  1  'x, y, z'
loop_
 _atom_site_type_symbol
 _atom_site_label
 _atom_site_symmetry_multiplicity
 _atom_site_fract_x
 _atom_site_fract_y
 _atom_site_fract_z
 _atom_site_occupancy
  F  F0  1  0.13427110  0.46940192  0.30611382  1
  F  F1  1  0.36572890  0.53059808  0.80611382  1
  F  F2  1  0.86572890  0.96940192  0.69388618  1
  F  F3  1  0.63427110  0.03059808  0.19388618  1
  F  F4  1  0.86572890  0.53059808  0.69388618  1
  F  F5  1  0.63427110  0.46940192  0.19388618  1
  F  F6  1  0.13427110  0.03059808  0.30611382  1
  F  F7  1  0.36572890  0.96940192  0.80611382  1
  F  F8  1  0.00000000  0.00000000  0.50000000  1
  F  F9  1  0.50000000  0.00000000  0.00000000  1
  F  F10  1  0.00000000  0.50000000  0.50000000  1
  F  F11  1  0.50000000  0.50000000  0.00000000  1
  F  F12  1  0.49213203  0.25000000  0.29754318  1
  F  F13  1  0.00786797  0.75000000  0.79754318  1
  F  F14  1  0.50786797  0.75000000  0.70245682  1
  F  F15  1  0.99213203  0.25000000  0.20245682  1
  F  F16  1  0.53114026  0.25000000  0.41330694  1
  F  F17  1  0.96885974  0.75000000  0.91330694  1
  F  F18  1  0.46885974  0.75000000  0.58669306  1
  F  F19  1  0.03114026  0.25000000  0.08669306  1
  F  F20  1  0.29397283  0.25000000  0.98414454  1
  F  F21  1  0.20602717  0.75000000  0.48414454  1
  F  F22  1  0.70602717  0.75000000  0.01585546  1
  F  F23  1  0.79397283  0.25000000  0.51585546  1
  Li  Li24  1  0.00000000  0.00000000  0.00000000  1
  Li  Li25  1  0.50000000  0.00000000  0.50000000  1
  Li  Li26  1  0.00000000  0.50000000  0.00000000  1
  Li  Li27  1  0.50000000  0.50000000  0.50000000  1
  Li  Li28  1  0.19389158  0.25000000  0.37133962  1
  Li  Li29  1  0.30610842  0.75000000  0.87133962  1
  Li  Li30  1  0.80610842  0.75000000  0.62866038  1
  Li  Li31  1  0.69389158  0.25000000  0.12866038  1
  Li  Li32  1  0.37522199  0.53514850  0.06429583  1
  Li  Li33  1  0.12477801  -0.53514850  0.56429583  1
  Li  Li34  1  -0.37522199  1.03514850  -0.06429583  1
  Li  Li35  1  0.87522199  -0.03514850  0.43570417  1
  Li  Li36  1  -0.37522199  -0.53514850  -0.06429583  1
  Li  Li37  1  0.87522199  0.53514850  0.43570417  1
  Li  Li38  1  0.37522199  -0.03514850  0.06429583  1
  Li  Li39  1  0.12477801  1.03514850  0.56429583  1
  Li  Li40  1  0.16743895  0.25000000  0.74491285  1
  Li  Li41  1  0.33256105  0.75000000  0.24491285  1
  Li  Li42  1  0.83256105  0.75000000  0.25508715  1
  Li  Li43  1  0.66743895  0.25000000  0.75508715  1
  Li  Li44  1  0.61569038  0.25000000  0.53391749  1
  Li  Li45  1  0.88430962  0.75000000  0.03391749  1
  Li  Li46  1  0.38430962  0.75000000  0.46608251  1
  Li  Li47  1  0.11569038  0.25000000  0.96608251  1
