# generated using pymatgen
data_LiF
_symmetry_space_group_name_H-M   'P 1'
_cell_length_a   8.74085972
_cell_length_b   8.74085972
_cell_length_c   20.96761812
_cell_angle_alpha   90.00000000
_cell_angle_beta   90.00000000
_cell_angle_gamma   90.00000000
_symmetry_Int_Tables_number   1
_chemical_formula_structural   LiF
_chemical_formula_sum   'Li64 F64'
_cell_volume   1601.98113953
_cell_formula_units_Z   64
loop_
 _symmetry_equiv_pos_site_id
 _symmetry_equiv_pos_as_xyz
  1  'x, y, z'
loop_
 _atom_site_type_symbol
 _atom_site_label
 _atom_site_symmetry_multiplicity
 _atom_site_fract_x
 _atom_site_fract_y
 _atom_site_fract_z
 _atom_site_occupancy
  F  F0  1  0.00000000  0.00000000  0.00000000  1
  F  F1  1  0.50000000  0.00000000  0.50000000  1
  F  F2  1  0.25000000  0.75000000  0.25000000  1
  F  F3  1  0.25000000  0.25000000  0.75000000  1
  F  F4  1  0.50000000  0.00000000  0.00000000  1
  F  F5  1  0.00000000  0.00000000  0.50000000  1
  F  F6  1  0.25000000  0.75000000  0.75000000  1
  F  F7  1  0.25000000  0.25000000  0.25000000  1
  F  F8  1  0.50000000  0.50000000  0.50000000  1
  F  F9  1  0.00000000  0.50000000  0.00000000  1
  F  F10  1  0.75000000  0.25000000  0.75000000  1
  F  F11  1  0.75000000  0.75000000  0.25000000  1
  F  F12  1  0.00000000  0.50000000  0.50000000  1
  F  F13  1  0.50000000  0.50000000  0.00000000  1
  F  F14  1  0.75000000  0.25000000  0.25000000  1
  F  F15  1  0.75000000  0.75000000  0.75000000  1
  F  F16  1  0.08500080  0.33500080  0.12500000  1
  F  F17  1  0.41499920  0.66499920  0.62500000  1
  F  F18  1  0.91499920  0.83500080  0.37500000  1
  F  F19  1  0.58500080  0.16499920  0.87500000  1
  F  F20  1  0.91499920  0.66499920  0.87500000  1
  F  F21  1  0.58500080  0.33500080  0.37500000  1
  F  F22  1  0.08500080  0.16499920  0.62500000  1
  F  F23  1  0.41499920  0.83500080  0.12500000  1
  F  F24  1  0.58500080  0.83500080  0.62500000  1
  F  F25  1  0.91499920  0.16499920  0.12500000  1
  F  F26  1  0.41499920  0.33500080  0.87500000  1
  F  F27  1  0.08500080  0.66499920  0.37500000  1
  F  F28  1  0.41499920  0.16499920  0.37500000  1
  F  F29  1  0.08500080  0.83500080  0.87500000  1
  F  F30  1  0.58500080  0.66499920  0.12500000  1
  F  F31  1  0.91499920  0.33500080  0.62500000  1
  F  F32  1  0.40055789  0.31915634  0.39530980  1
  F  F33  1  0.09944211  -0.31915634  0.89530980  1
  F  F34  1  -0.06915634  1.15055789  0.64530980  1
  F  F35  1  0.56915634  -0.15055789  1.14530980  1
  F  F36  1  0.09944211  0.31915634  -0.39530980  1
  F  F37  1  0.40055789  -0.31915634  0.10469020  1
  F  F38  1  0.56915634  1.15055789  0.35469020  1
  F  F39  1  -0.06915634  -0.15055789  -0.14530980  1
  F  F40  1  -0.40055789  -0.31915634  -0.39530980  1
  F  F41  1  0.90055789  0.31915634  0.10469020  1
  F  F42  1  1.06915634  -0.15055789  0.35469020  1
  F  F43  1  0.43084366  1.15055789  -0.14530980  1
  F  F44  1  0.90055789  -0.31915634  0.39530980  1
  F  F45  1  -0.40055789  0.31915634  0.89530980  1
  F  F46  1  0.43084366  -0.15055789  0.64530980  1
  F  F47  1  1.06915634  1.15055789  1.14530980  1
  F  F48  1  0.90055789  0.81915634  0.89530980  1
  F  F49  1  0.59944211  0.18084366  1.39530980  1
  F  F50  1  0.43084366  1.65055789  1.14530980  1
  F  F51  1  1.06915634  0.34944211  1.64530980  1
  F  F52  1  0.59944211  0.81915634  0.10469020  1
  F  F53  1  0.90055789  0.18084366  0.60469020  1
  F  F54  1  1.06915634  1.65055789  0.85469020  1
  F  F55  1  0.43084366  0.34944211  0.35469020  1
  F  F56  1  0.09944211  0.18084366  0.10469020  1
  F  F57  1  1.40055789  0.81915634  0.60469020  1
  F  F58  1  1.56915634  0.34944211  0.85469020  1
  F  F59  1  0.93084366  1.65055789  0.35469020  1
  F  F60  1  1.40055789  0.18084366  0.89530980  1
  F  F61  1  0.09944211  0.81915634  1.39530980  1
  F  F62  1  0.93084366  0.34944211  1.14530980  1
  F  F63  1  1.56915634  1.65055789  1.64530980  1
  Li  Li64  1  0.06020615  0.00000000  0.25000000  1
  Li  Li65  1  0.43979385  -0.00000000  0.75000000  1
  Li  Li66  1  0.25000000  0.81020615  0.50000000  1
  Li  Li67  1  0.25000000  0.18979385  0.00000000  1
  Li  Li68  1  0.93979385  0.00000000  0.75000000  1
  Li  Li69  1  0.56020615  -0.00000000  0.25000000  1
  Li  Li70  1  0.75000000  0.18979385  0.50000000  1
  Li  Li71  1  0.75000000  0.81020615  0.00000000  1
  Li  Li72  1  0.56020615  0.50000000  0.75000000  1
  Li  Li73  1  0.93979385  0.50000000  0.25000000  1
  Li  Li74  1  0.75000000  0.31020615  0.00000000  1
  Li  Li75  1  0.75000000  0.68979385  0.50000000  1
  Li  Li76  1  0.43979385  0.50000000  0.25000000  1
  Li  Li77  1  0.06020615  0.50000000  0.75000000  1
  Li  Li78  1  0.25000000  0.68979385  0.00000000  1
  Li  Li79  1  0.25000000  0.31020615  0.50000000  1
  Li  Li80  1  0.04653538  0.15832640  0.78138220  1
  Li  Li81  1  0.45346462  0.84167360  0.28138220  1
  Li  Li82  1  0.09167360  0.79653538  0.03138220  1
  Li  Li83  1  0.40832640  0.20346462  0.53138220  1
  Li  Li84  1  0.45346462  0.15832640  0.21861780  1
  Li  Li85  1  0.04653538  0.84167360  0.71861780  1
  Li  Li86  1  0.40832640  0.79653538  0.96861780  1
  Li  Li87  1  0.09167360  0.20346462  0.46861780  1
  Li  Li88  1  0.95346462  0.84167360  0.21861780  1
  Li  Li89  1  0.54653538  0.15832640  0.71861780  1
  Li  Li90  1  0.90832640  0.20346462  0.96861780  1
  Li  Li91  1  0.59167360  0.79653538  0.46861780  1
  Li  Li92  1  0.54653538  0.84167360  0.78138220  1
  Li  Li93  1  0.95346462  0.15832640  0.28138220  1
  Li  Li94  1  0.59167360  0.20346462  0.03138220  1
  Li  Li95  1  0.90832640  0.79653538  0.53138220  1
  Li  Li96  1  0.54653538  0.65832640  0.28138220  1
  Li  Li97  1  0.95346462  0.34167360  0.78138220  1
  Li  Li98  1  0.59167360  0.29653538  0.53138220  1
  Li  Li99  1  0.90832640  0.70346462  0.03138220  1
  Li  Li100  1  0.95346462  0.65832640  0.71861780  1
  Li  Li101  1  0.54653538  0.34167360  0.21861780  1
  Li  Li102  1  0.90832640  0.29653538  0.46861780  1
  Li  Li103  1  0.59167360  0.70346462  0.96861780  1
  Li  Li104  1  0.45346462  0.34167360  0.71861780  1
  Li  Li105  1  0.04653538  0.65832640  0.21861780  1
  Li  Li106  1  0.40832640  0.70346462  0.46861780  1
  Li  Li107  1  0.09167360  0.29653538  0.96861780  1
  Li  Li108  1  0.04653538  0.34167360  0.28138220  1
  Li  Li109  1  0.45346462  0.65832640  0.78138220  1
  Li  Li110  1  0.09167360  0.70346462  0.53138220  1
  Li  Li111  1  0.40832640  0.29653538  0.03138220  1
  Li  Li112  1  0.00000000  0.25000000  0.12500000  1
  Li  Li113  1  0.00000000  0.75000000  0.37500000  1
  Li  Li114  1  0.00000000  0.75000000  0.87500000  1
  Li  Li115  1  0.00000000  0.25000000  0.62500000  1
  Li  Li116  1  0.50000000  0.75000000  0.62500000  1
  Li  Li117  1  0.50000000  0.25000000  0.87500000  1
  Li  Li118  1  0.50000000  0.25000000  0.37500000  1
  Li  Li119  1  0.50000000  0.75000000  0.12500000  1
  Li  Li120  1  0.00000000  0.25000000  0.37500000  1
  Li  Li121  1  0.00000000  0.75000000  0.62500000  1
  Li  Li122  1  0.50000000  0.25000000  0.62500000  1
  Li  Li123  1  0.50000000  0.75000000  0.37500000  1
  Li  Li124  1  0.50000000  0.75000000  0.87500000  1
  Li  Li125  1  0.50000000  0.25000000  0.12500000  1
  Li  Li126  1  0.00000000  0.75000000  0.12500000  1
  Li  Li127  1  0.00000000  0.25000000  0.87500000  1
