# generated using pymatgen
data_LiF
_symmetry_space_group_name_H-M   'P 1'
_cell_length_a   6.51392436
_cell_length_b   10.10698270
_cell_length_c   10.45027805
_cell_angle_alpha   90.00000000
_cell_angle_beta   90.00000000
_cell_angle_gamma   90.00000000
_symmetry_Int_Tables_number   1
_chemical_formula_structural   LiF
_chemical_formula_sum   'Li26 F26'
_cell_volume   688.00576862
_cell_formula_units_Z   26
loop_
 _symmetry_equiv_pos_site_id
 _symmetry_equiv_pos_as_xyz
  1  'x, y, z'
loop_
 _atom_site_type_symbol
 _atom_site_label
 _atom_site_symmetry_multiplicity
 _atom_site_fract_x
 _atom_site_fract_y
 _atom_site_fract_z
 _atom_site_occupancy
  F  F0  1  0.55992605  0.69422799  0.79131312  1
  F  F1  1  -0.55992605  -0.69422799  0.79131312  1
  F  F2  1  -0.05992605  1.19422799  -0.79131312  1
  F  F3  1  1.05992605  -0.19422799  -0.79131312  1
  F  F4  1  -0.55992605  -0.69422799  -0.79131312  1
  F  F5  1  0.55992605  0.69422799  -0.79131312  1
  F  F6  1  1.05992605  -0.19422799  0.79131312  1
  F  F7  1  -0.05992605  1.19422799  0.79131312  1
  F  F8  1  0.47071202  0.52130953  0.86469951  1
  F  F9  1  0.52928798  0.47869047  0.86469951  1
  F  F10  1  0.02928798  0.02130953  0.13530049  1
  F  F11  1  0.97071202  0.97869047  0.13530049  1
  F  F12  1  0.52928798  0.47869047  0.13530049  1
  F  F13  1  0.47071202  0.52130953  0.13530049  1
  F  F14  1  0.97071202  0.97869047  0.86469951  1
  F  F15  1  0.02928798  0.02130953  0.86469951  1
  F  F16  1  0.93065376  0.89653647  0.00000000  1
  F  F17  1  0.06934624  0.10346353  0.00000000  1
  F  F18  1  0.56934624  0.39653647  0.00000000  1
  F  F19  1  0.43065376  0.60346353  -0.00000000  1
  F  F20  1  0.00000000  0.50000000  0.82444086  1
  F  F21  1  0.50000000  0.00000000  0.17555914  1
  F  F22  1  0.00000000  0.50000000  0.17555914  1
  F  F23  1  0.50000000  0.00000000  0.82444086  1
  F  F24  1  0.00000000  0.50000000  0.50000000  1
  F  F25  1  0.50000000  0.00000000  0.50000000  1
  Li  Li26  1  0.64589941  0.06267317  0.50000000  1
  Li  Li27  1  0.35410059  0.93732683  0.50000000  1
  Li  Li28  1  0.85410059  0.56267317  0.50000000  1
  Li  Li29  1  0.14589941  0.43732683  0.50000000  1
  Li  Li30  1  0.44210239  0.60038415  0.33688033  1
  Li  Li31  1  0.55789761  0.39961585  0.33688033  1
  Li  Li32  1  0.05789761  0.10038415  0.66311967  1
  Li  Li33  1  0.94210239  0.89961585  0.66311967  1
  Li  Li34  1  0.55789761  0.39961585  0.66311967  1
  Li  Li35  1  0.44210239  0.60038415  0.66311967  1
  Li  Li36  1  0.94210239  0.89961585  0.33688033  1
  Li  Li37  1  0.05789761  0.10038415  0.33688033  1
  Li  Li38  1  0.64506500  0.15978191  0.92494706  1
  Li  Li39  1  0.35493500  0.84021809  0.92494706  1
  Li  Li40  1  0.85493500  0.65978191  0.07505294  1
  Li  Li41  1  0.14506500  0.34021809  0.07505294  1
  Li  Li42  1  0.35493500  0.84021809  0.07505294  1
  Li  Li43  1  0.64506500  0.15978191  0.07505294  1
  Li  Li44  1  0.14506500  0.34021809  0.92494706  1
  Li  Li45  1  0.85493500  0.65978191  0.92494706  1
  Li  Li46  1  0.00000000  0.00000000  0.57917578  1
  Li  Li47  1  0.50000000  0.50000000  0.42082422  1
  Li  Li48  1  0.00000000  0.00000000  0.42082422  1
  Li  Li49  1  0.50000000  0.50000000  0.57917578  1
  Li  Li50  1  0.00000000  0.00000000  0.00000000  1
  Li  Li51  1  0.50000000  0.50000000  -0.00000000  1
