# generated using pymatgen
data_LiF
_symmetry_space_group_name_H-M   'P 1'
_cell_length_a   6.98201589
_cell_length_b   8.46381393
_cell_length_c   8.02735884
_cell_angle_alpha   90.00000000
_cell_angle_beta   90.00000000
_cell_angle_gamma   90.00000000
_symmetry_Int_Tables_number   1
_chemical_formula_structural   LiF
_chemical_formula_sum   'Li24 F24'
_cell_volume   474.37262308
_cell_formula_units_Z   24
loop_
 _symmetry_equiv_pos_site_id
 _symmetry_equiv_pos_as_xyz
  1  'x, y, z'
loop_
 _atom_site_type_symbol
 _atom_site_label
 _atom_site_symmetry_multiplicity
 _atom_site_fract_x
 _atom_site_fract_y
 _atom_site_fract_z
 _atom_site_occupancy
  F  F0  1  0.85661547  0.54175580  0.19982258  1
  F  F1  1  0.64338453  0.45824420  0.69982258  1
  F  F2  1  0.14338453  0.04175580  0.80017742  1
  F  F3  1  0.35661547  0.95824420  0.30017742  1
  F  F4  1  0.14338453  0.45824420  0.80017742  1
  F  F5  1  0.35661547  0.54175580  0.30017742  1
  F  F6  1  0.85661547  0.95824420  0.19982258  1
  F  F7  1  0.64338453  0.04175580  0.69982258  1
  F  F8  1  0.69138094  0.53990050  0.91391947  1
  F  F9  1  0.80861906  0.46009950  0.41391947  1
  F  F10  1  0.30861906  0.03990050  0.08608053  1
  F  F11  1  0.19138094  0.96009950  0.58608053  1
  F  F12  1  0.30861906  0.46009950  0.08608053  1
  F  F13  1  0.19138094  0.53990050  0.58608053  1
  F  F14  1  0.69138094  0.96009950  0.91391947  1
  F  F15  1  0.80861906  0.03990050  0.41391947  1
  F  F16  1  0.67194583  0.43810087  0.94963173  1
  F  F17  1  0.82805417  0.56189913  0.44963173  1
  F  F18  1  0.32805417  0.93810087  0.05036827  1
  F  F19  1  0.17194583  0.06189913  0.55036827  1
  F  F20  1  0.32805417  0.56189913  0.05036827  1
  F  F21  1  0.17194583  0.43810087  0.55036827  1
  F  F22  1  0.67194583  0.06189913  0.94963173  1
  F  F23  1  0.82805417  0.93810087  0.44963173  1
  Li  Li24  1  0.32127169  0.93081460  0.44300140  1
  Li  Li25  1  0.17872831  -0.93081460  0.94300140  1
  Li  Li26  1  -0.32127169  1.43081460  -0.44300140  1
  Li  Li27  1  0.82127169  -0.43081460  0.05699860  1
  Li  Li28  1  -0.32127169  -0.93081460  -0.44300140  1
  Li  Li29  1  0.82127169  0.93081460  0.05699860  1
  Li  Li30  1  0.32127169  -0.43081460  0.44300140  1
  Li  Li31  1  0.17872831  1.43081460  0.94300140  1
  Li  Li32  1  0.00000000  0.00000000  0.50000000  1
  Li  Li33  1  0.50000000  -0.00000000  -0.00000000  1
  Li  Li34  1  0.00000000  0.50000000  0.50000000  1
  Li  Li35  1  0.50000000  0.50000000  0.00000000  1
  Li  Li36  1  0.78176468  0.25000000  0.60194589  1
  Li  Li37  1  0.71823532  0.75000000  0.10194589  1
  Li  Li38  1  0.21823532  0.75000000  0.39805411  1
  Li  Li39  1  0.28176468  0.25000000  0.89805411  1
  Li  Li40  1  0.88964999  0.25000000  0.91576468  1
  Li  Li41  1  0.61035001  0.75000000  0.41576468  1
  Li  Li42  1  0.11035001  0.75000000  0.08423532  1
  Li  Li43  1  0.38964999  0.25000000  0.58423532  1
  Li  Li44  1  0.00000000  0.00000000  0.00000000  1
  Li  Li45  1  0.50000000  -0.00000000  0.50000000  1
  Li  Li46  1  0.00000000  0.50000000  0.00000000  1
  Li  Li47  1  0.50000000  0.50000000  0.50000000  1
