# generated using pymatgen
data_LiF
_symmetry_space_group_name_H-M   'P 1'
_cell_length_a   15.14024835
_cell_length_b   5.85010044
_cell_length_c   5.47676757
_cell_angle_alpha   90.00000000
_cell_angle_beta   90.00000000
_cell_angle_gamma   90.00000000
_symmetry_Int_Tables_number   1
_chemical_formula_structural   LiF
_chemical_formula_sum   'Li20 F20'
_cell_volume   485.08811287
_cell_formula_units_Z   20
loop_
 _symmetry_equiv_pos_site_id
 _symmetry_equiv_pos_as_xyz
  1  'x, y, z'
loop_
 _atom_site_type_symbol
 _atom_site_label
 _atom_site_symmetry_multiplicity
 _atom_site_fract_x
 _atom_site_fract_y
 _atom_site_fract_z
 _atom_site_occupancy
  F  F0  1  0.00000000  0.50000000  0.00000000  1
  F  F1  1  0.50000000  0.00000000  0.00000000  1
  F  F2  1  0.19507022  0.17985592  0.00000000  1
  F  F3  1  0.80492978  0.82014408  0.00000000  1
  F  F4  1  0.30492978  0.67985592  0.00000000  1
  F  F5  1  0.69507022  0.32014408  0.00000000  1
  F  F6  1  0.00000000  0.00000000  0.50000000  1
  F  F7  1  0.50000000  0.50000000  0.50000000  1
  F  F8  1  0.45620696  0.53998764  0.75200166  1
  F  F9  1  -0.45620696  -0.53998764  0.75200166  1
  F  F10  1  0.04379304  1.03998764  -0.75200166  1
  F  F11  1  0.95620696  -0.03998764  -0.75200166  1
  F  F12  1  -0.45620696  -0.53998764  -0.75200166  1
  F  F13  1  0.45620696  0.53998764  -0.75200166  1
  F  F14  1  0.95620696  -0.03998764  0.75200166  1
  F  F15  1  0.04379304  1.03998764  0.75200166  1
  F  F16  1  0.08581346  0.89320901  0.00000000  1
  F  F17  1  0.91418654  0.10679099  0.00000000  1
  F  F18  1  0.41418654  0.39320901  0.00000000  1
  F  F19  1  0.58581346  0.60679099  0.00000000  1
  Li  Li20  1  0.75881783  0.95268754  0.50000000  1
  Li  Li21  1  0.24118217  0.04731246  0.50000000  1
  Li  Li22  1  0.74118217  0.45268754  0.50000000  1
  Li  Li23  1  0.25881783  0.54731246  0.50000000  1
  Li  Li24  1  0.36070554  0.95627118  0.17668198  1
  Li  Li25  1  0.63929446  0.04372882  0.17668198  1
  Li  Li26  1  0.13929446  0.45627118  0.82331802  1
  Li  Li27  1  0.86070554  0.54372882  0.82331802  1
  Li  Li28  1  0.63929446  0.04372882  0.82331802  1
  Li  Li29  1  0.36070554  0.95627118  0.82331802  1
  Li  Li30  1  0.86070554  0.54372882  0.17668198  1
  Li  Li31  1  0.13929446  0.45627118  0.17668198  1
  Li  Li32  1  0.92747288  0.07436145  0.50000000  1
  Li  Li33  1  0.07252712  0.92563855  0.50000000  1
  Li  Li34  1  0.57252712  0.57436145  0.50000000  1
  Li  Li35  1  0.42747288  0.42563855  0.50000000  1
  Li  Li36  1  0.12520023  0.17189726  0.50000000  1
  Li  Li37  1  0.87479977  0.82810274  0.50000000  1
  Li  Li38  1  0.37479977  0.67189726  0.50000000  1
  Li  Li39  1  0.62520023  0.32810274  0.50000000  1
