# generated using pymatgen
data_Li2CaSeF2
_symmetry_space_group_name_H-M   'P 1'
_cell_length_a   7.17536975
_cell_length_b   7.17536975
_cell_length_c   8.05463965
_cell_angle_alpha   90.00000000
_cell_angle_beta   90.00000000
_cell_angle_gamma   120.00000000
_symmetry_Int_Tables_number   1
_chemical_formula_structural   Li2CaSeF2
_chemical_formula_sum   'Li8 Ca4 Se4 F8'
_cell_volume   359.14127308
_cell_formula_units_Z   4
loop_
 _symmetry_equiv_pos_site_id
 _symmetry_equiv_pos_as_xyz
  1  'x, y, z'
loop_
 _atom_site_type_symbol
 _atom_site_label
 _atom_site_symmetry_multiplicity
 _atom_site_fract_x
 _atom_site_fract_y
 _atom_site_fract_z
 _atom_site_occupancy
  Ca  Ca0  1  0.00000000  0.00000000  0.50000000  1
  Ca  Ca1  1  0.28461327  -0.00000000  0.50000000  1
  Ca  Ca2  1  0.00000000  0.28461327  0.50000000  1
  Ca  Ca3  1  0.71538673  0.71538673  0.50000000  1
  F  F4  1  0.81578438  0.18673820  -0.00000000  1
  F  F5  1  -0.18673820  0.62904618  -0.00000000  1
  F  F6  1  -0.62904618  -0.81578438  0.00000000  1
  F  F7  1  0.18673820  0.81578438  -0.00000000  1
  F  F8  1  0.62904618  -0.18673820  -0.00000000  1
  F  F9  1  -0.81578438  -0.62904618  0.00000000  1
  F  F10  1  0.33333333  0.66666667  0.50000000  1
  F  F11  1  0.66666667  0.33333333  0.50000000  1
  Li  Li12  1  0.00000000  0.00000000  0.00000000  1
  Li  Li13  1  0.78316883  -0.00000000  0.00000000  1
  Li  Li14  1  0.00000000  0.78316883  -0.00000000  1
  Li  Li15  1  0.21683117  0.21683117  0.00000000  1
  Li  Li16  1  0.33333333  0.66666667  0.67098304  1
  Li  Li17  1  0.33333333  0.66666667  0.32901696  1
  Li  Li18  1  0.66666667  0.33333333  0.32901696  1
  Li  Li19  1  0.66666667  0.33333333  0.67098304  1
  Se  Se20  1  0.33333333  0.66666667  -0.00000000  1
  Se  Se21  1  0.66666667  0.33333333  -0.00000000  1
  Se  Se22  1  0.00000000  0.00000000  0.80583264  1
  Se  Se23  1  0.00000000  0.00000000  0.19416736  1
