# generated using pymatgen
data_Li2Y2Cu3(PSe)2
_symmetry_space_group_name_H-M   'P 1'
_cell_length_a   5.69324691
_cell_length_b   5.97588349
_cell_length_c   7.30141456
_cell_angle_alpha   93.37814879
_cell_angle_beta   97.00641137
_cell_angle_gamma   103.01901310
_symmetry_Int_Tables_number   1
_chemical_formula_structural   Li2Y2Cu3(PSe)2
_chemical_formula_sum   'Li2 Y2 Cu3 P2 Se2'
_cell_volume   239.25660061
_cell_formula_units_Z   1
loop_
 _symmetry_equiv_pos_site_id
 _symmetry_equiv_pos_as_xyz
  1  'x, y, z'
loop_
 _atom_site_type_symbol
 _atom_site_label
 _atom_site_symmetry_multiplicity
 _atom_site_fract_x
 _atom_site_fract_y
 _atom_site_fract_z
 _atom_site_occupancy
  Y  Y0  1  0.12500000  0.00000000  0.25000000  1
  Y  Y1  1  0.00000000  0.00000000  0.00000000  1
  P  P2  1  0.37500000  0.00000000  0.25000000  1
  P  P3  1  0.25000000  0.25000000  0.25000000  1
  Se  Se4  1  0.00000000  0.25000000  0.12500000  1
  Se  Se5  1  0.21423851  0.45501022  0.37769308  1
  Li  Li6  1  0.52222737  0.10881797  0.30990127  1
  Li  Li7  1  0.84850378  0.79690279  0.71945980  1
  Cu  Cu8  1  0.04478366  0.68686865  0.31433967  1
  Cu  Cu9  1  0.96566029  0.23034746  0.99245572  1
  Cu  Cu10  1  0.61529899  0.68278332  0.17641499  1
