# generated using pymatgen
data_LiY2Te4(As2P)2
_symmetry_space_group_name_H-M   'P 1'
_cell_length_a   4.85591322
_cell_length_b   4.99855619
_cell_length_c   6.73379625
_cell_angle_alpha   94.75092980
_cell_angle_beta   99.14131254
_cell_angle_gamma   107.19248523
_symmetry_Int_Tables_number   1
_chemical_formula_structural   LiY2Te4(As2P)2
_chemical_formula_sum   'Li1 Y2 Te4 As4 P2'
_cell_volume   152.69366843
_cell_formula_units_Z   1
loop_
 _symmetry_equiv_pos_site_id
 _symmetry_equiv_pos_as_xyz
  1  'x, y, z'
loop_
 _atom_site_type_symbol
 _atom_site_label
 _atom_site_symmetry_multiplicity
 _atom_site_fract_x
 _atom_site_fract_y
 _atom_site_fract_z
 _atom_site_occupancy
  Te  Te0  1  0.00000000  0.00000000  0.00000000  1
  Te  Te1  1  0.50000000  0.50000000  0.50000000  1
  Te  Te2  1  0.50000000  0.50000000  0.00000000  1
  Te  Te3  1  0.50000000  0.00000000  0.50000000  1
  Y  Y4  1  0.00000000  0.50000000  0.50000000  1
  Y  Y5  1  0.66521639  0.67840224  0.69184527  1
  P  P6  1  0.18125449  0.44328310  0.71310286  1
  P  P7  1  0.17591786  0.35674713  0.16513103  1
  As  As8  1  0.46265821  0.74354347  0.20245704  1
  As  As9  1  0.86526365  0.32622347  0.30315818  1
  As  As10  1  0.91594410  0.83364815  0.37538376  1
  As  As11  1  0.22430658  0.57211555  0.07125119  1
  Li  Li12  1  0.98807821  0.31824104  0.01865379  1
