# generated using pymatgen
data_LiF
_symmetry_space_group_name_H-M   'P 1'
_cell_length_a   15.47906050
_cell_length_b   15.47906050
_cell_length_c   6.11056789
_cell_angle_alpha   90.00000000
_cell_angle_beta   90.00000000
_cell_angle_gamma   120.00000000
_symmetry_Int_Tables_number   1
_chemical_formula_structural   LiF
_chemical_formula_sum   'Li49 F49'
_cell_volume   1267.94787712
_cell_formula_units_Z   49
loop_
 _symmetry_equiv_pos_site_id
 _symmetry_equiv_pos_as_xyz
  1  'x, y, z'
loop_
 _atom_site_type_symbol
 _atom_site_label
 _atom_site_symmetry_multiplicity
 _atom_site_fract_x
 _atom_site_fract_y
 _atom_site_fract_z
 _atom_site_occupancy
  F  F0  1  0.33333333  0.66666667  0.00000000  1
  F  F1  1  0.12065102  0.46490986  0.98076399  1
  F  F2  1  0.53509014  0.65574116  0.98076399  1
  F  F3  1  0.34425884  0.87934898  0.98076399  1
  F  F4  1  0.53509014  0.87934898  0.01923601  1
  F  F5  1  0.34425884  0.46490986  0.01923601  1
  F  F6  1  0.12065102  0.65574116  0.01923601  1
  F  F7  1  0.56666922  0.52277087  0.47754500  1
  F  F8  1  0.47722913  0.04389835  0.47754500  1
  F  F9  1  0.95610165  0.43333078  0.47754500  1
  F  F10  1  0.47722913  0.43333078  0.52245500  1
  F  F11  1  0.95610165  0.52277087  0.52245500  1
  F  F12  1  0.56666922  0.04389835  0.52245500  1
  F  F13  1  0.79975083  0.20024917  0.00000000  1
  F  F14  1  0.79975083  0.59950165  0.00000000  1
  F  F15  1  0.40049835  0.20024917  0.00000000  1
  F  F16  1  0.66666667  0.33333333  0.79464041  1
  F  F17  1  0.66666667  0.33333333  0.20535959  1
  F  F18  1  0.66666667  0.33333333  0.00000000  1
  F  F19  1  0.79946848  0.16331237  0.71150234  1
  F  F20  1  0.83668763  0.63615611  0.71150234  1
  F  F21  1  0.36384389  0.20053152  0.71150234  1
  F  F22  1  0.83668763  0.20053152  0.28849766  1
  F  F23  1  0.36384389  0.16331237  0.28849766  1
  F  F24  1  0.79946848  0.63615611  0.28849766  1
  F  F25  1  0.24905282  0.52572872  0.63183036  1
  F  F26  1  0.47427128  0.72332410  0.63183036  1
  F  F27  1  0.27667590  0.75094718  0.63183036  1
  F  F28  1  0.47427128  0.75094718  0.36816964  1
  F  F29  1  0.27667590  0.52572872  0.36816964  1
  F  F30  1  0.24905282  0.72332410  0.36816964  1
  F  F31  1  0.47910318  0.39111693  0.11614080  1
  F  F32  1  0.60888307  0.08798624  0.11614080  1
  F  F33  1  0.91201376  0.52089682  0.11614080  1
  F  F34  1  0.60888307  0.52089682  0.88385920  1
  F  F35  1  0.91201376  0.39111693  0.88385920  1
  F  F36  1  0.47910318  0.08798624  0.88385920  1
  F  F37  1  0.39994004  0.14905150  0.99917276  1
  F  F38  1  0.85094850  0.25088854  0.99917276  1
  F  F39  1  0.74911146  0.60005996  0.99917276  1
  F  F40  1  0.85094850  0.60005996  0.00082724  1
  F  F41  1  0.74911146  0.14905150  0.00082724  1
  F  F42  1  0.39994004  0.25088854  0.00082724  1
  F  F43  1  0.35065951  0.55958471  0.20313598  1
  F  F44  1  0.44041529  0.79107479  0.20313598  1
  F  F45  1  0.20892521  0.64934049  0.20313598  1
  F  F46  1  0.44041529  0.64934049  0.79686402  1
  F  F47  1  0.20892521  0.55958471  0.79686402  1
  F  F48  1  0.35065951  0.79107479  0.79686402  1
  Li  Li49  1  0.00000000  0.00000000  0.00000000  1
  Li  Li50  1  0.66666667  0.33333333  0.50000000  1
  Li  Li51  1  0.33333333  0.66666667  0.50000000  1
  Li  Li52  1  0.69828228  0.64314697  0.37410428  1
  Li  Li53  1  -0.64314697  0.05513531  0.37410428  1
  Li  Li54  1  -0.05513531  -0.69828228  0.37410428  1
  Li  Li55  1  -0.64314697  -0.69828228  -0.37410428  1
  Li  Li56  1  -0.05513531  0.64314697  -0.37410428  1
  Li  Li57  1  0.69828228  0.05513531  -0.37410428  1
  Li  Li58  1  0.01447663  0.67912616  0.39593247  1
  Li  Li59  1  0.32087384  0.33535046  0.39593247  1
  Li  Li60  1  0.66464954  0.98552337  0.39593247  1
  Li  Li61  1  0.32087384  0.98552337  0.60406753  1
  Li  Li62  1  0.66464954  0.67912616  0.60406753  1
  Li  Li63  1  0.01447663  0.33535046  0.60406753  1
  Li  Li64  1  0.80792096  0.10618738  0.40503769  1
  Li  Li65  1  0.89381262  0.70173359  0.40503769  1
  Li  Li66  1  0.29826641  0.19207904  0.40503769  1
  Li  Li67  1  0.89381262  0.19207904  0.59496231  1
  Li  Li68  1  0.29826641  0.10618738  0.59496231  1
  Li  Li69  1  0.80792096  0.70173359  0.59496231  1
  Li  Li70  1  0.63087544  0.89688942  0.64034947  1
  Li  Li71  1  0.10311058  0.73398602  0.64034947  1
  Li  Li72  1  0.26601398  0.36912456  0.64034947  1
  Li  Li73  1  0.10311058  0.36912456  0.35965053  1
  Li  Li74  1  0.26601398  0.89688942  0.35965053  1
  Li  Li75  1  0.63087544  0.73398602  0.35965053  1
  Li  Li76  1  0.02503963  0.57405397  0.55219173  1
  Li  Li77  1  0.42594603  0.45098566  0.55219173  1
  Li  Li78  1  0.54901434  0.97496037  0.55219173  1
  Li  Li79  1  0.42594603  0.97496037  0.44780827  1
  Li  Li80  1  0.54901434  0.57405397  0.44780827  1
  Li  Li81  1  0.02503963  0.45098566  0.44780827  1
  Li  Li82  1  0.51414369  0.32900156  0.82924892  1
  Li  Li83  1  0.67099844  0.18514213  0.82924892  1
  Li  Li84  1  0.81485787  0.48585631  0.82924892  1
  Li  Li85  1  0.67099844  0.48585631  0.17075108  1
  Li  Li86  1  0.81485787  0.32900156  0.17075108  1
  Li  Li87  1  0.51414369  0.18514213  0.17075108  1
  Li  Li88  1  0.59922948  0.84274262  0.99100190  1
  Li  Li89  1  0.15725738  0.75648686  0.99100190  1
  Li  Li90  1  0.24351314  0.40077052  0.99100190  1
  Li  Li91  1  0.15725738  0.40077052  0.00899810  1
  Li  Li92  1  0.24351314  0.84274262  0.00899810  1
  Li  Li93  1  0.59922948  0.75648686  0.00899810  1
  Li  Li94  1  0.90105469  0.09894531  0.00000000  1
  Li  Li95  1  0.90105469  0.80210937  0.00000000  1
  Li  Li96  1  0.19789063  0.09894531  0.00000000  1
  Li  Li97  1  0.00000000  0.00000000  0.50000000  1
