# generated using pymatgen
data_Li2Y2P3Se
_symmetry_space_group_name_H-M   'P 1'
_cell_length_a   4.88405402
_cell_length_b   5.07639480
_cell_length_c   6.62510648
_cell_angle_alpha   94.50156484
_cell_angle_beta   98.11401494
_cell_angle_gamma   105.43148048
_symmetry_Int_Tables_number   1
_chemical_formula_structural   Li2Y2P3Se
_chemical_formula_sum   'Li2 Y2 P3 Se1'
_cell_volume   155.58887669
_cell_formula_units_Z   1
loop_
 _symmetry_equiv_pos_site_id
 _symmetry_equiv_pos_as_xyz
  1  'x, y, z'
loop_
 _atom_site_type_symbol
 _atom_site_label
 _atom_site_symmetry_multiplicity
 _atom_site_fract_x
 _atom_site_fract_y
 _atom_site_fract_z
 _atom_site_occupancy
  Se  Se0  1  0.00000000  0.00000000  0.00000000  1
  P  P1  1  0.33300000  0.66700000  0.25000000  1
  P  P2  1  0.66700000  0.33300000  0.50000000  1
  P  P3  1  0.00000000  0.00000000  0.75000000  1
  Li  Li4  1  0.66583755  0.54922691  0.13061290  1
  Li  Li5  1  0.28463996  0.19299991  0.79885823  1
  Y  Y6  1  0.15083360  0.41420126  0.78257488  1
  Y  Y7  1  0.48882160  0.93177574  0.40919547  1
