# generated using pymatgen
data_LiF
_symmetry_space_group_name_H-M   'P 1'
_cell_length_a   9.96943141
_cell_length_b   11.27525307
_cell_length_c   7.64400313
_cell_angle_alpha   90.00000000
_cell_angle_beta   90.00000000
_cell_angle_gamma   90.00000000
_symmetry_Int_Tables_number   1
_chemical_formula_structural   LiF
_chemical_formula_sum   'Li24 F24'
_cell_volume   859.24605028
_cell_formula_units_Z   24
loop_
 _symmetry_equiv_pos_site_id
 _symmetry_equiv_pos_as_xyz
  1  'x, y, z'
loop_
 _atom_site_type_symbol
 _atom_site_label
 _atom_site_symmetry_multiplicity
 _atom_site_fract_x
 _atom_site_fract_y
 _atom_site_fract_z
 _atom_site_occupancy
  F  F0  1  0.28206299  0.25000000  0.33395658  1
  F  F1  1  0.21793701  0.75000000  0.83395658  1
  F  F2  1  0.71793701  0.75000000  0.66604342  1
  F  F3  1  0.78206299  0.25000000  0.16604342  1
  F  F4  1  0.00291028  0.01772742  0.14727429  1
  F  F5  1  0.49708972  0.98227258  0.64727429  1
  F  F6  1  0.99708972  0.51772742  0.85272571  1
  F  F7  1  0.50291028  0.48227258  0.35272571  1
  F  F8  1  0.99708972  0.98227258  0.85272571  1
  F  F9  1  0.50291028  0.01772742  0.35272571  1
  F  F10  1  0.00291028  0.48227258  0.14727429  1
  F  F11  1  0.49708972  0.51772742  0.64727429  1
  F  F12  1  0.68281722  0.43891071  0.25704325  1
  F  F13  1  0.81718278  0.56108929  0.75704325  1
  F  F14  1  0.31718278  0.93891071  0.74295675  1
  F  F15  1  0.18281722  0.06108929  0.24295675  1
  F  F16  1  0.31718278  0.56108929  0.74295675  1
  F  F17  1  0.18281722  0.43891071  0.24295675  1
  F  F18  1  0.68281722  0.06108929  0.25704325  1
  F  F19  1  0.81718278  0.93891071  0.75704325  1
  F  F20  1  0.43674996  0.25000000  0.40202044  1
  F  F21  1  0.06325004  0.75000000  0.90202044  1
  F  F22  1  0.56325004  0.75000000  0.59797956  1
  F  F23  1  0.93674996  0.25000000  0.09797956  1
  Li  Li24  1  0.65206326  0.25000000  0.78041967  1
  Li  Li25  1  0.84793674  0.75000000  0.28041967  1
  Li  Li26  1  0.34793674  0.75000000  0.21958033  1
  Li  Li27  1  0.15206326  0.25000000  0.71958033  1
  Li  Li28  1  0.82744446  0.25000000  0.78654952  1
  Li  Li29  1  0.67255554  0.75000000  0.28654952  1
  Li  Li30  1  0.17255554  0.75000000  0.21345048  1
  Li  Li31  1  0.32744446  0.25000000  0.71345048  1
  Li  Li32  1  0.00000000  0.00000000  0.00000000  1
  Li  Li33  1  0.50000000  0.00000000  0.50000000  1
  Li  Li34  1  0.00000000  0.50000000  0.00000000  1
  Li  Li35  1  0.50000000  0.50000000  0.50000000  1
  Li  Li36  1  0.08514078  0.25000000  0.03100282  1
  Li  Li37  1  0.41485922  0.75000000  0.53100282  1
  Li  Li38  1  0.91485922  0.75000000  0.96899718  1
  Li  Li39  1  0.58514078  0.25000000  0.46899718  1
  Li  Li40  1  0.86154700  0.01206038  0.26410157  1
  Li  Li41  1  -0.36154700  -0.01206038  0.76410157  1
  Li  Li42  1  -0.86154700  0.51206038  -0.26410157  1
  Li  Li43  1  1.36154700  0.48793962  0.23589843  1
  Li  Li44  1  -0.86154700  -0.01206038  -0.26410157  1
  Li  Li45  1  1.36154700  0.01206038  0.23589843  1
  Li  Li46  1  0.86154700  0.48793962  0.26410157  1
  Li  Li47  1  -0.36154700  0.51206038  0.76410157  1
