# generated using pymatgen
data_LiF
_symmetry_space_group_name_H-M   'P 1'
_cell_length_a   4.67992291
_cell_length_b   4.67992291
_cell_length_c   44.77172990
_cell_angle_alpha   90.00000000
_cell_angle_beta   90.00000000
_cell_angle_gamma   120.00000000
_symmetry_Int_Tables_number   1
_chemical_formula_structural   LiF
_chemical_formula_sum   'Li32 F32'
_cell_volume   849.20375219
_cell_formula_units_Z   32
loop_
 _symmetry_equiv_pos_site_id
 _symmetry_equiv_pos_as_xyz
  1  'x, y, z'
loop_
 _atom_site_type_symbol
 _atom_site_label
 _atom_site_symmetry_multiplicity
 _atom_site_fract_x
 _atom_site_fract_y
 _atom_site_fract_z
 _atom_site_occupancy
  F  F0  1  0.63506794  0.01277950  0.99795626  1
  F  F1  1  0.98722050  0.62228844  0.99795626  1
  F  F2  1  0.37771156  0.36493206  0.99795626  1
  F  F3  1  0.98722050  0.36493206  0.00204374  1
  F  F4  1  0.37771156  0.01277950  0.00204374  1
  F  F5  1  0.63506794  0.62228844  0.00204374  1
  F  F6  1  0.00000000  0.00000000  0.00000000  1
  F  F7  1  0.39209665  0.79645309  0.85798596  1
  F  F8  1  0.20354691  0.59564355  0.85798596  1
  F  F9  1  0.40435645  0.60790335  0.85798596  1
  F  F10  1  0.20354691  0.60790335  0.14201404  1
  F  F11  1  0.40435645  0.79645309  0.14201404  1
  F  F12  1  0.39209665  0.59564355  0.14201404  1
  F  F13  1  0.44180225  0.55819775  0.00000000  1
  F  F14  1  0.44180225  0.88360450  0.00000000  1
  F  F15  1  0.11639550  0.55819775  -0.00000000  1
  F  F16  1  0.40701328  0.97181634  0.91257657  1
  F  F17  1  0.02818366  0.43519694  0.91257657  1
  F  F18  1  0.56480306  0.59298672  0.91257657  1
  F  F19  1  0.02818366  0.59298672  0.08742343  1
  F  F20  1  0.56480306  0.97181634  0.08742343  1
  F  F21  1  0.40701328  0.43519694  0.08742343  1
  F  F22  1  0.00000000  0.00000000  0.50000000  1
  F  F23  1  0.33333333  0.66666667  0.00000000  1
  F  F24  1  0.27403430  0.97386879  0.73741516  1
  F  F25  1  0.02613121  0.30016551  0.73741516  1
  F  F26  1  0.69983449  0.72596570  0.73741516  1
  F  F27  1  0.02613121  0.72596570  0.26258484  1
  F  F28  1  0.69983449  0.97386879  0.26258484  1
  F  F29  1  0.27403430  0.30016551  0.26258484  1
  F  F30  1  0.00000000  0.00000000  0.45661008  1
  F  F31  1  0.00000000  0.00000000  0.54338992  1
  Li  Li32  1  0.30855916  0.11856750  0.12115727  1
  Li  Li33  1  -0.11856750  0.18999165  0.12115727  1
  Li  Li34  1  -0.18999165  -0.30855916  0.12115727  1
  Li  Li35  1  -0.11856750  -0.30855916  -0.12115727  1
  Li  Li36  1  -0.18999165  0.11856750  -0.12115727  1
  Li  Li37  1  0.30855916  0.18999165  -0.12115727  1
  Li  Li38  1  0.66666667  0.33333333  0.10693313  1
  Li  Li39  1  0.66666667  0.33333333  0.89306687  1
  Li  Li40  1  0.00000000  0.00000000  0.59443945  1
  Li  Li41  1  0.00000000  0.00000000  0.40556055  1
  Li  Li42  1  0.26417178  0.43562666  0.38746363  1
  Li  Li43  1  0.56437334  0.82854513  0.38746363  1
  Li  Li44  1  0.17145487  0.73582822  0.38746363  1
  Li  Li45  1  0.56437334  0.73582822  0.61253637  1
  Li  Li46  1  0.17145487  0.43562666  0.61253637  1
  Li  Li47  1  0.26417178  0.82854513  0.61253637  1
  Li  Li48  1  0.33333333  0.66666667  0.16131582  1
  Li  Li49  1  0.33333333  0.66666667  0.83868418  1
  Li  Li50  1  0.49618350  0.41047233  0.58227358  1
  Li  Li51  1  0.58952767  0.08571117  0.58227358  1
  Li  Li52  1  0.91428883  0.50381650  0.58227358  1
  Li  Li53  1  0.58952767  0.50381650  0.41772642  1
  Li  Li54  1  0.91428883  0.41047233  0.41772642  1
  Li  Li55  1  0.49618350  0.08571117  0.41772642  1
  Li  Li56  1  0.36474635  0.28537361  0.45947745  1
  Li  Li57  1  0.71462639  0.07937274  0.45947745  1
  Li  Li58  1  0.92062726  0.63525365  0.45947745  1
  Li  Li59  1  0.71462639  0.63525365  0.54052255  1
  Li  Li60  1  0.92062726  0.28537361  0.54052255  1
  Li  Li61  1  0.36474635  0.07937274  0.54052255  1
  Li  Li62  1  0.66666667  0.33333333  0.95213300  1
  Li  Li63  1  0.66666667  0.33333333  0.04786700  1
