# generated using pymatgen
data_LiF
_symmetry_space_group_name_H-M   'P 1'
_cell_length_a   5.44409598
_cell_length_b   14.07875605
_cell_length_c   7.33274136
_cell_angle_alpha   90.00000000
_cell_angle_beta   90.00000000
_cell_angle_gamma   90.00000000
_symmetry_Int_Tables_number   1
_chemical_formula_structural   LiF
_chemical_formula_sum   'Li24 F24'
_cell_volume   562.02602208
_cell_formula_units_Z   24
loop_
 _symmetry_equiv_pos_site_id
 _symmetry_equiv_pos_as_xyz
  1  'x, y, z'
loop_
 _atom_site_type_symbol
 _atom_site_label
 _atom_site_symmetry_multiplicity
 _atom_site_fract_x
 _atom_site_fract_y
 _atom_site_fract_z
 _atom_site_occupancy
  F  F0  1  0.00000000  0.00000000  0.50000000  1
  F  F1  1  0.50000000  0.00000000  0.00000000  1
  F  F2  1  0.00000000  0.50000000  0.50000000  1
  F  F3  1  0.50000000  0.50000000  0.00000000  1
  F  F4  1  0.93174719  0.25000000  0.48959733  1
  F  F5  1  0.56825281  0.75000000  0.98959733  1
  F  F6  1  0.06825281  0.75000000  0.51040267  1
  F  F7  1  0.43174719  0.25000000  0.01040267  1
  F  F8  1  0.66263348  0.29171975  0.20978959  1
  F  F9  1  0.83736652  0.70828025  0.70978959  1
  F  F10  1  0.33736652  0.79171975  0.79021041  1
  F  F11  1  0.16263348  0.20828025  0.29021041  1
  F  F12  1  0.33736652  0.70828025  0.79021041  1
  F  F13  1  0.16263348  0.29171975  0.29021041  1
  F  F14  1  0.66263348  0.20828025  0.20978959  1
  F  F15  1  0.83736652  0.79171975  0.70978959  1
  F  F16  1  0.05580916  0.50830744  0.33723010  1
  F  F17  1  0.44419084  0.49169256  0.83723010  1
  F  F18  1  0.94419084  0.00830744  0.66276990  1
  F  F19  1  0.55580916  0.99169256  0.16276990  1
  F  F20  1  0.94419084  0.49169256  0.66276990  1
  F  F21  1  0.55580916  0.50830744  0.16276990  1
  F  F22  1  0.05580916  0.99169256  0.33723010  1
  F  F23  1  0.44419084  0.00830744  0.83723010  1
  Li  Li24  1  0.03901591  0.25000000  0.90274454  1
  Li  Li25  1  0.46098409  0.75000000  0.40274454  1
  Li  Li26  1  0.96098409  0.75000000  0.09725546  1
  Li  Li27  1  0.53901591  0.25000000  0.59725546  1
  Li  Li28  1  0.90558719  0.81350081  0.84434612  1
  Li  Li29  1  -0.40558719  -0.81350081  1.34434612  1
  Li  Li30  1  -0.90558719  1.31350081  -0.84434612  1
  Li  Li31  1  1.40558719  -0.31350081  -0.34434612  1
  Li  Li32  1  -0.90558719  -0.81350081  -0.84434612  1
  Li  Li33  1  1.40558719  0.81350081  -0.34434612  1
  Li  Li34  1  0.90558719  -0.31350081  0.84434612  1
  Li  Li35  1  -0.40558719  1.31350081  1.34434612  1
  Li  Li36  1  0.07166078  0.63400312  0.32674507  1
  Li  Li37  1  0.42833922  0.36599688  0.82674507  1
  Li  Li38  1  0.92833922  0.13400312  0.67325493  1
  Li  Li39  1  0.57166078  0.86599688  0.17325493  1
  Li  Li40  1  0.92833922  0.36599688  0.67325493  1
  Li  Li41  1  0.57166078  0.63400312  0.17325493  1
  Li  Li42  1  0.07166078  0.86599688  0.32674507  1
  Li  Li43  1  0.42833922  0.13400312  0.82674507  1
  Li  Li44  1  0.92308651  0.25000000  0.34084319  1
  Li  Li45  1  0.57691349  0.75000000  0.84084319  1
  Li  Li46  1  0.07691349  0.75000000  0.65915681  1
  Li  Li47  1  0.42308651  0.25000000  0.15915681  1
