# generated using pymatgen
data_LiF
_symmetry_space_group_name_H-M   'P 1'
_cell_length_a   9.51966401
_cell_length_b   9.51966401
_cell_length_c   9.04540309
_cell_angle_alpha   90.00000000
_cell_angle_beta   90.00000000
_cell_angle_gamma   120.00000000
_symmetry_Int_Tables_number   1
_chemical_formula_structural   LiF
_chemical_formula_sum   'Li24 F24'
_cell_volume   709.90755410
_cell_formula_units_Z   24
loop_
 _symmetry_equiv_pos_site_id
 _symmetry_equiv_pos_as_xyz
  1  'x, y, z'
loop_
 _atom_site_type_symbol
 _atom_site_label
 _atom_site_symmetry_multiplicity
 _atom_site_fract_x
 _atom_site_fract_y
 _atom_site_fract_z
 _atom_site_occupancy
  F  F0  1  0.66666667  0.33333333  0.00000000  1
  F  F1  1  0.05019667  0.83284080  0.75026111  1
  F  F2  1  0.16715920  0.21735588  0.75026111  1
  F  F3  1  0.78264412  0.94980333  0.75026111  1
  F  F4  1  0.16715920  0.94980333  0.24973889  1
  F  F5  1  0.78264412  0.83284080  0.24973889  1
  F  F6  1  0.05019667  0.21735588  0.24973889  1
  F  F7  1  0.77261216  0.22738784  0.50000000  1
  F  F8  1  0.77261216  0.54522432  0.50000000  1
  F  F9  1  0.45477568  0.22738784  0.50000000  1
  F  F10  1  0.51319171  0.46591982  0.59098065  1
  F  F11  1  0.53408018  0.04727188  0.59098065  1
  F  F12  1  0.95272812  0.48680829  0.59098065  1
  F  F13  1  0.53408018  0.48680829  0.40901935  1
  F  F14  1  0.95272812  0.46591982  0.40901935  1
  F  F15  1  0.51319171  0.04727188  0.40901935  1
  F  F16  1  0.38625782  0.75749513  0.83073855  1
  F  F17  1  0.24250487  0.62876269  0.83073855  1
  F  F18  1  0.37123731  0.61374218  0.83073855  1
  F  F19  1  0.24250487  0.61374218  0.16926145  1
  F  F20  1  0.37123731  0.75749513  0.16926145  1
  F  F21  1  0.38625782  0.62876269  0.16926145  1
  F  F22  1  0.00000000  0.00000000  0.26361990  1
  F  F23  1  0.00000000  0.00000000  0.73638010  1
  Li  Li24  1  0.00000000  0.00000000  0.50000000  1
  Li  Li25  1  0.66666667  0.33333333  0.50000000  1
  Li  Li26  1  0.71490655  0.85224938  0.14027117  1
  Li  Li27  1  -0.85224938  -0.13734283  0.14027117  1
  Li  Li28  1  0.13734283  -0.71490655  0.14027117  1
  Li  Li29  1  -0.85224938  -0.71490655  -0.14027117  1
  Li  Li30  1  0.13734283  0.85224938  -0.14027117  1
  Li  Li31  1  0.71490655  -0.13734283  -0.14027117  1
  Li  Li32  1  0.75769753  0.80011008  0.66207667  1
  Li  Li33  1  0.19988992  0.95758745  0.66207667  1
  Li  Li34  1  0.04241255  0.24230247  0.66207667  1
  Li  Li35  1  0.19988992  0.24230247  0.33792333  1
  Li  Li36  1  0.04241255  0.80011008  0.33792333  1
  Li  Li37  1  0.75769753  0.95758745  0.33792333  1
  Li  Li38  1  0.21786213  0.51482624  0.38006994  1
  Li  Li39  1  0.48517376  0.70303589  0.38006994  1
  Li  Li40  1  0.29696411  0.78213787  0.38006994  1
  Li  Li41  1  0.48517376  0.78213787  0.61993006  1
  Li  Li42  1  0.29696411  0.51482624  0.61993006  1
  Li  Li43  1  0.21786213  0.70303589  0.61993006  1
  Li  Li44  1  0.66666667  0.33333333  0.13739524  1
  Li  Li45  1  0.66666667  0.33333333  0.86260476  1
  Li  Li46  1  0.33333333  0.66666667  0.40093899  1
  Li  Li47  1  0.33333333  0.66666667  0.59906101  1
