# generated using pymatgen
data_LiF
_symmetry_space_group_name_H-M   'P 1'
_cell_length_a   9.98374072
_cell_length_b   6.58986273
_cell_length_c   11.85963502
_cell_angle_alpha   90.00000000
_cell_angle_beta   90.00000000
_cell_angle_gamma   90.00000000
_symmetry_Int_Tables_number   1
_chemical_formula_structural   LiF
_chemical_formula_sum   'Li24 F24'
_cell_volume   780.26295067
_cell_formula_units_Z   24
loop_
 _symmetry_equiv_pos_site_id
 _symmetry_equiv_pos_as_xyz
  1  'x, y, z'
loop_
 _atom_site_type_symbol
 _atom_site_label
 _atom_site_symmetry_multiplicity
 _atom_site_fract_x
 _atom_site_fract_y
 _atom_site_fract_z
 _atom_site_occupancy
  F  F0  1  0.99482495  0.65187863  0.57952247  1
  F  F1  1  0.50517505  0.34812137  0.07952247  1
  F  F2  1  0.00517505  0.15187863  0.42047753  1
  F  F3  1  0.49482495  0.84812137  0.92047753  1
  F  F4  1  0.00517505  0.34812137  0.42047753  1
  F  F5  1  0.49482495  0.65187863  0.92047753  1
  F  F6  1  0.99482495  0.84812137  0.57952247  1
  F  F7  1  0.50517505  0.15187863  0.07952247  1
  F  F8  1  0.78086774  0.99387690  0.59776817  1
  F  F9  1  0.71913226  0.00612310  0.09776817  1
  F  F10  1  0.21913226  0.49387690  0.40223183  1
  F  F11  1  0.28086774  0.50612310  0.90223183  1
  F  F12  1  0.21913226  0.00612310  0.40223183  1
  F  F13  1  0.28086774  0.99387690  0.90223183  1
  F  F14  1  0.78086774  0.50612310  0.59776817  1
  F  F15  1  0.71913226  0.49387690  0.09776817  1
  F  F16  1  0.28135326  0.49216044  0.80602195  1
  F  F17  1  0.21864674  0.50783956  0.30602195  1
  F  F18  1  0.71864674  0.99216044  0.19397805  1
  F  F19  1  0.78135326  0.00783956  0.69397805  1
  F  F20  1  0.71864674  0.50783956  0.19397805  1
  F  F21  1  0.78135326  0.49216044  0.69397805  1
  F  F22  1  0.28135326  0.00783956  0.80602195  1
  F  F23  1  0.21864674  0.99216044  0.30602195  1
  Li  Li24  1  0.00000000  0.00000000  0.00000000  1
  Li  Li25  1  0.50000000  0.00000000  0.50000000  1
  Li  Li26  1  0.00000000  0.50000000  0.00000000  1
  Li  Li27  1  0.50000000  0.50000000  0.50000000  1
  Li  Li28  1  0.87373115  0.25000000  0.27855402  1
  Li  Li29  1  0.62626885  0.75000000  0.77855402  1
  Li  Li30  1  0.12626885  0.75000000  0.72144598  1
  Li  Li31  1  0.37373115  0.25000000  0.22144598  1
  Li  Li32  1  0.38736783  0.88771446  0.51987700  1
  Li  Li33  1  0.11263217  -0.88771446  1.01987700  1
  Li  Li34  1  -0.38736783  1.38771446  -0.51987700  1
  Li  Li35  1  0.88736783  -0.38771446  -0.01987700  1
  Li  Li36  1  -0.38736783  -0.88771446  -0.51987700  1
  Li  Li37  1  0.88736783  0.88771446  -0.01987700  1
  Li  Li38  1  0.38736783  -0.38771446  0.51987700  1
  Li  Li39  1  0.11263217  1.38771446  1.01987700  1
  Li  Li40  1  0.79677768  0.09928634  0.12641267  1
  Li  Li41  1  0.70322232  0.90071366  0.62641267  1
  Li  Li42  1  0.20322232  0.59928634  0.87358733  1
  Li  Li43  1  0.29677768  0.40071366  0.37358733  1
  Li  Li44  1  0.20322232  0.90071366  0.87358733  1
  Li  Li45  1  0.29677768  0.09928634  0.37358733  1
  Li  Li46  1  0.79677768  0.40071366  0.12641267  1
  Li  Li47  1  0.70322232  0.59928634  0.62641267  1
