# generated using pymatgen
data_LiYAs2P
_symmetry_space_group_name_H-M   'P 1'
_cell_length_a   4.97122864
_cell_length_b   5.13573369
_cell_length_c   6.85959325
_cell_angle_alpha   94.59033748
_cell_angle_beta   99.31881280
_cell_angle_gamma   107.37429678
_symmetry_Int_Tables_number   1
_chemical_formula_structural   LiYAs2P
_chemical_formula_sum   'Li2 Y2 As4 P2'
_cell_volume   163.39559255
_cell_formula_units_Z   2
loop_
 _symmetry_equiv_pos_site_id
 _symmetry_equiv_pos_as_xyz
  1  'x, y, z'
loop_
 _atom_site_type_symbol
 _atom_site_label
 _atom_site_symmetry_multiplicity
 _atom_site_fract_x
 _atom_site_fract_y
 _atom_site_fract_z
 _atom_site_occupancy
  P  P0  1  0.12500000  0.12500000  0.12500000  1
  P  P1  1  0.50000000  0.50000000  0.50000000  1
  As  As2  1  0.25000000  0.25000000  0.25000000  1
  As  As3  1  0.75000000  0.75000000  0.75000000  1
  As  As4  1  0.37480353  0.86350583  0.16599682  1
  As  As5  1  0.83372697  0.54290575  0.25662360  1
  Li  Li6  1  0.40749802  0.18472594  0.68983113  1
  Li  Li7  1  0.53530407  0.97006969  0.12357431  1
  Y  Y8  1  0.74993614  0.73013773  0.89215433  1
  Y  Y9  1  0.43906039  0.96491203  0.39989733  1
