# generated using pymatgen
data_Li3Y2P3Se2
_symmetry_space_group_name_H-M   'P 1'
_cell_length_a   5.38968998
_cell_length_b   5.62512478
_cell_length_c   7.24151675
_cell_angle_alpha   94.00661381
_cell_angle_beta   98.72557192
_cell_angle_gamma   106.09297528
_symmetry_Int_Tables_number   1
_chemical_formula_structural   Li3Y2P3Se2
_chemical_formula_sum   'Li3 Y2 P3 Se2'
_cell_volume   207.04826799
_cell_formula_units_Z   1
loop_
 _symmetry_equiv_pos_site_id
 _symmetry_equiv_pos_as_xyz
  1  'x, y, z'
loop_
 _atom_site_type_symbol
 _atom_site_label
 _atom_site_symmetry_multiplicity
 _atom_site_fract_x
 _atom_site_fract_y
 _atom_site_fract_z
 _atom_site_occupancy
  Se  Se0  1  0.00000000  0.00000000  0.00000000  1
  Se  Se1  1  0.50000000  0.50000000  0.50000000  1
  P  P2  1  0.50000000  0.50000000  0.00000000  1
  P  P3  1  0.50000000  0.00000000  0.50000000  1
  P  P4  1  0.00000000  0.50000000  0.50000000  1
  Li  Li5  1  0.00803180  0.26811261  0.57736555  1
  Li  Li6  1  0.91623923  0.02551519  0.78025782  1
  Li  Li7  1  0.96054066  0.89452575  0.69778222  1
  Y  Y8  1  0.17717440  0.28460726  0.53080091  1
  Y  Y9  1  0.53752262  0.08448727  0.36328755  1
