# generated using pymatgen
data_LiF
_symmetry_space_group_name_H-M   'P 1'
_cell_length_a   13.56329799
_cell_length_b   13.56329799
_cell_length_c   4.83829196
_cell_angle_alpha   90.00000000
_cell_angle_beta   90.00000000
_cell_angle_gamma   120.00000000
_symmetry_Int_Tables_number   1
_chemical_formula_structural   LiF
_chemical_formula_sum   'Li36 F36'
_cell_volume   770.82059587
_cell_formula_units_Z   36
loop_
 _symmetry_equiv_pos_site_id
 _symmetry_equiv_pos_as_xyz
  1  'x, y, z'
loop_
 _atom_site_type_symbol
 _atom_site_label
 _atom_site_symmetry_multiplicity
 _atom_site_fract_x
 _atom_site_fract_y
 _atom_site_fract_z
 _atom_site_occupancy
  F  F0  1  0.22983674  0.27857499  0.25000000  1
  F  F1  1  0.72142501  0.95126175  0.25000000  1
  F  F2  1  0.04873825  0.77016326  0.25000000  1
  F  F3  1  0.77016326  0.72142501  0.75000000  1
  F  F4  1  0.27857499  0.04873825  0.75000000  1
  F  F5  1  0.95126175  0.22983674  0.75000000  1
  F  F6  1  0.33333333  0.66666667  0.25000000  1
  F  F7  1  0.66666667  0.33333333  0.75000000  1
  F  F8  1  0.69009094  0.83217922  0.25000000  1
  F  F9  1  0.16782078  0.85791172  0.25000000  1
  F  F10  1  0.14208828  0.30990906  0.25000000  1
  F  F11  1  0.30990906  0.16782078  0.75000000  1
  F  F12  1  0.83217922  0.14208828  0.75000000  1
  F  F13  1  0.85791172  0.69009094  0.75000000  1
  F  F14  1  0.48261239  0.03113270  0.32607490  1
  F  F15  1  -0.03113270  0.45147970  0.32607490  1
  F  F16  1  -0.45147970  -0.48261239  0.32607490  1
  F  F17  1  -0.48261239  -0.03113270  0.82607490  1
  F  F18  1  0.03113270  -0.45147970  0.82607490  1
  F  F19  1  0.45147970  0.48261239  0.82607490  1
  F  F20  1  -0.48261239  -0.03113270  -0.32607490  1
  F  F21  1  0.03113270  -0.45147970  -0.32607490  1
  F  F22  1  0.45147970  0.48261239  -0.32607490  1
  F  F23  1  0.48261239  0.03113270  0.17392510  1
  F  F24  1  -0.03113270  0.45147970  0.17392510  1
  F  F25  1  -0.45147970  -0.48261239  0.17392510  1
  F  F26  1  0.66666667  0.33333333  0.25000000  1
  F  F27  1  0.33333333  0.66666667  0.75000000  1
  F  F28  1  0.43953326  0.99495627  0.25000000  1
  F  F29  1  0.00504373  0.44457699  0.25000000  1
  F  F30  1  0.55542301  0.56046674  0.25000000  1
  F  F31  1  0.56046674  0.00504373  0.75000000  1
  F  F32  1  0.99495627  0.55542301  0.75000000  1
  F  F33  1  0.44457699  0.43953326  0.75000000  1
  F  F34  1  0.00000000  0.00000000  0.00000000  1
  F  F35  1  0.00000000  0.00000000  0.50000000  1
  Li  Li36  1  0.15247627  0.47944234  0.25000000  1
  Li  Li37  1  0.52055766  0.67303393  0.25000000  1
  Li  Li38  1  0.32696607  0.84752373  0.25000000  1
  Li  Li39  1  0.84752373  0.52055766  0.75000000  1
  Li  Li40  1  0.47944234  0.32696607  0.75000000  1
  Li  Li41  1  0.67303393  0.15247627  0.75000000  1
  Li  Li42  1  0.03040696  0.39920813  0.61417807  1
  Li  Li43  1  0.60079187  0.63119882  0.61417807  1
  Li  Li44  1  0.36880118  0.96959304  0.61417807  1
  Li  Li45  1  0.96959304  0.60079187  0.11417807  1
  Li  Li46  1  0.39920813  0.36880118  0.11417807  1
  Li  Li47  1  0.63119882  0.03040696  0.11417807  1
  Li  Li48  1  0.96959304  0.60079187  0.38582193  1
  Li  Li49  1  0.39920813  0.36880118  0.38582193  1
  Li  Li50  1  0.63119882  0.03040696  0.38582193  1
  Li  Li51  1  0.03040696  0.39920813  0.88582193  1
  Li  Li52  1  0.60079187  0.63119882  0.88582193  1
  Li  Li53  1  0.36880118  0.96959304  0.88582193  1
  Li  Li54  1  0.81840934  0.81965166  0.25000000  1
  Li  Li55  1  0.18034834  0.99875768  0.25000000  1
  Li  Li56  1  0.00124232  0.18159066  0.25000000  1
  Li  Li57  1  0.18159066  0.18034834  0.75000000  1
  Li  Li58  1  0.81965166  0.00124232  0.75000000  1
  Li  Li59  1  0.99875768  0.81840934  0.75000000  1
  Li  Li60  1  0.50000000  0.00000000  0.00000000  1
  Li  Li61  1  0.00000000  0.50000000  0.00000000  1
  Li  Li62  1  0.50000000  0.50000000  0.00000000  1
  Li  Li63  1  0.50000000  0.00000000  0.50000000  1
  Li  Li64  1  0.00000000  0.50000000  0.50000000  1
  Li  Li65  1  0.50000000  0.50000000  0.50000000  1
  Li  Li66  1  0.98730279  0.79260150  0.25000000  1
  Li  Li67  1  0.20739850  0.19470129  0.25000000  1
  Li  Li68  1  0.80529871  0.01269721  0.25000000  1
  Li  Li69  1  0.01269721  0.20739850  0.75000000  1
  Li  Li70  1  0.79260150  0.80529871  0.75000000  1
  Li  Li71  1  0.19470129  0.98730279  0.75000000  1
