# generated using pymatgen
data_LiF
_symmetry_space_group_name_H-M   'P 1'
_cell_length_a   16.65511988
_cell_length_b   16.65511988
_cell_length_c   4.72374100
_cell_angle_alpha   90.00000000
_cell_angle_beta   90.00000000
_cell_angle_gamma   120.00000000
_symmetry_Int_Tables_number   1
_chemical_formula_structural   LiF
_chemical_formula_sum   'Li30 F30'
_cell_volume   1134.78146876
_cell_formula_units_Z   30
loop_
 _symmetry_equiv_pos_site_id
 _symmetry_equiv_pos_as_xyz
  1  'x, y, z'
loop_
 _atom_site_type_symbol
 _atom_site_label
 _atom_site_symmetry_multiplicity
 _atom_site_fract_x
 _atom_site_fract_y
 _atom_site_fract_z
 _atom_site_occupancy
  F  F0  1  0.06713476  0.42279160  0.43253289  1
  F  F1  1  0.57720840  0.64434316  0.43253289  1
  F  F2  1  0.35565684  0.93286524  0.43253289  1
  F  F3  1  0.57720840  0.93286524  0.56746711  1
  F  F4  1  0.35565684  0.42279160  0.56746711  1
  F  F5  1  0.06713476  0.64434316  0.56746711  1
  F  F6  1  0.00000000  0.00000000  0.50000000  1
  F  F7  1  0.06375806  0.70895955  0.39757806  1
  F  F8  1  0.29104045  0.35479851  0.39757806  1
  F  F9  1  0.64520149  0.93624194  0.39757806  1
  F  F10  1  0.29104045  0.93624194  0.60242194  1
  F  F11  1  0.64520149  0.70895955  0.60242194  1
  F  F12  1  0.06375806  0.35479851  0.60242194  1
  F  F13  1  0.52933905  0.07043033  0.55934511  1
  F  F14  1  0.92956967  0.45890873  0.55934511  1
  F  F15  1  0.54109127  0.47066095  0.55934511  1
  F  F16  1  0.92956967  0.47066095  0.44065489  1
  F  F17  1  0.54109127  0.07043033  0.44065489  1
  F  F18  1  0.52933905  0.45890873  0.44065489  1
  F  F19  1  0.00000000  0.00000000  0.27458433  1
  F  F20  1  0.00000000  0.00000000  0.72541567  1
  F  F21  1  0.80589729  0.31420071  0.90344457  1
  F  F22  1  0.68579929  0.49169657  0.90344457  1
  F  F23  1  0.50830343  0.19410271  0.90344457  1
  F  F24  1  0.68579929  0.19410271  0.09655543  1
  F  F25  1  0.50830343  0.31420071  0.09655543  1
  F  F26  1  0.80589729  0.49169657  0.09655543  1
  F  F27  1  0.66666667  0.33333333  0.70133074  1
  F  F28  1  0.66666667  0.33333333  0.29866926  1
  F  F29  1  0.66666667  0.33333333  0.50000000  1
  Li  Li30  1  0.18388704  0.79142433  0.84849231  1
  Li  Li31  1  -0.79142433  -0.60753729  0.84849231  1
  Li  Li32  1  0.60753729  -0.18388704  0.84849231  1
  Li  Li33  1  -0.79142433  -0.18388704  -0.84849231  1
  Li  Li34  1  0.60753729  0.79142433  -0.84849231  1
  Li  Li35  1  0.18388704  -0.60753729  -0.84849231  1
  Li  Li36  1  0.95544521  0.33069015  0.92760586  1
  Li  Li37  1  0.66930985  0.62475507  0.92760586  1
  Li  Li38  1  0.37524493  0.04455479  0.92760586  1
  Li  Li39  1  0.66930985  0.04455479  0.07239414  1
  Li  Li40  1  0.37524493  0.33069015  0.07239414  1
  Li  Li41  1  0.95544521  0.62475507  0.07239414  1
  Li  Li42  1  0.79113752  0.42466032  0.86311740  1
  Li  Li43  1  0.57533968  0.36647720  0.86311740  1
  Li  Li44  1  0.63352280  0.20886248  0.86311740  1
  Li  Li45  1  0.57533968  0.20886248  0.13688260  1
  Li  Li46  1  0.63352280  0.42466032  0.13688260  1
  Li  Li47  1  0.79113752  0.36647720  0.13688260  1
  Li  Li48  1  0.97395647  0.17478719  0.01448546  1
  Li  Li49  1  0.82521281  0.79916929  0.01448546  1
  Li  Li50  1  0.20083071  0.02604353  0.01448546  1
  Li  Li51  1  0.82521281  0.02604353  0.98551454  1
  Li  Li52  1  0.20083071  0.17478719  0.98551454  1
  Li  Li53  1  0.97395647  0.79916929  0.98551454  1
  Li  Li54  1  0.80116848  0.22470041  0.64194859  1
  Li  Li55  1  0.77529959  0.57646808  0.64194859  1
  Li  Li56  1  0.42353192  0.19883152  0.64194859  1
  Li  Li57  1  0.77529959  0.19883152  0.35805141  1
  Li  Li58  1  0.42353192  0.22470041  0.35805141  1
  Li  Li59  1  0.80116848  0.57646808  0.35805141  1
