# generated using pymatgen
data_LiY2Cu3P2Se
_symmetry_space_group_name_H-M   'P 1'
_cell_length_a   4.76194779
_cell_length_b   4.72872894
_cell_length_c   6.68005126
_cell_angle_alpha   94.89463498
_cell_angle_beta   99.18845804
_cell_angle_gamma   107.35282433
_symmetry_Int_Tables_number   1
_chemical_formula_structural   LiY2Cu3P2Se
_chemical_formula_sum   'Li1 Y2 Cu3 P2 Se1'
_cell_volume   140.31462675
_cell_formula_units_Z   1
loop_
 _symmetry_equiv_pos_site_id
 _symmetry_equiv_pos_as_xyz
  1  'x, y, z'
loop_
 _atom_site_type_symbol
 _atom_site_label
 _atom_site_symmetry_multiplicity
 _atom_site_fract_x
 _atom_site_fract_y
 _atom_site_fract_z
 _atom_site_occupancy
  Se  Se0  1  0.00000000  0.00000000  0.00000000  1
  Cu  Cu1  1  0.50000000  0.50000000  0.50000000  1
  Cu  Cu2  1  0.50000000  0.50000000  0.00000000  1
  Cu  Cu3  1  0.50000000  0.00000000  0.50000000  1
  P  P4  1  0.00000000  0.50000000  0.50000000  1
  P  P5  1  0.82856406  0.26060760  0.58402011  1
  Li  Li6  1  0.23901116  0.88352531  0.54330270  1
  Y  Y7  1  0.75418818  0.39815491  0.08749880  1
  Y  Y8  1  0.65578788  0.60064458  0.12037841  1
