# generated using pymatgen
data_Li2Te4MoP2Se
_symmetry_space_group_name_H-M   'P 1'
_cell_length_a   5.26123722
_cell_length_b   5.54113729
_cell_length_c   6.90530081
_cell_angle_alpha   93.69976301
_cell_angle_beta   98.09562024
_cell_angle_gamma   104.79657353
_symmetry_Int_Tables_number   1
_chemical_formula_structural   Li2Te4MoP2Se
_chemical_formula_sum   'Li2 Te4 Mo1 P2 Se1'
_cell_volume   191.63153865
_cell_formula_units_Z   1
loop_
 _symmetry_equiv_pos_site_id
 _symmetry_equiv_pos_as_xyz
  1  'x, y, z'
loop_
 _atom_site_type_symbol
 _atom_site_label
 _atom_site_symmetry_multiplicity
 _atom_site_fract_x
 _atom_site_fract_y
 _atom_site_fract_z
 _atom_site_occupancy
  Se  Se0  1  0.12500000  0.00000000  0.25000000  1
  Te  Te1  1  0.00000000  0.00000000  0.00000000  1
  Te  Te2  1  0.37500000  0.00000000  0.25000000  1
  Te  Te3  1  0.25000000  0.25000000  0.25000000  1
  Te  Te4  1  0.00000000  0.25000000  0.12500000  1
  P  P5  1  0.80633508  0.04276466  0.96947151  1
  P  P6  1  0.26262303  0.60831549  0.17798439  1
  Mo  Mo7  1  0.61704446  0.14736136  0.92618662  1
  Li  Li8  1  0.56122733  0.45464943  0.20941156  1
  Li  Li9  1  0.46118805  0.90887782  0.28426074  1
