# generated using pymatgen
data_LiF
_symmetry_space_group_name_H-M   'P 1'
_cell_length_a   6.68123140
_cell_length_b   9.30677931
_cell_length_c   15.71704828
_cell_angle_alpha   90.00000000
_cell_angle_beta   90.00000000
_cell_angle_gamma   90.00000000
_symmetry_Int_Tables_number   1
_chemical_formula_structural   LiF
_chemical_formula_sum   'Li24 F24'
_cell_volume   977.29778933
_cell_formula_units_Z   24
loop_
 _symmetry_equiv_pos_site_id
 _symmetry_equiv_pos_as_xyz
  1  'x, y, z'
loop_
 _atom_site_type_symbol
 _atom_site_label
 _atom_site_symmetry_multiplicity
 _atom_site_fract_x
 _atom_site_fract_y
 _atom_site_fract_z
 _atom_site_occupancy
  F  F0  1  0.11552326  0.25000000  0.44684107  1
  F  F1  1  0.38447674  0.75000000  0.94684107  1
  F  F2  1  0.88447674  0.75000000  0.55315893  1
  F  F3  1  0.61552326  0.25000000  0.05315893  1
  F  F4  1  0.27862070  0.11058674  0.64183440  1
  F  F5  1  0.22137930  0.88941326  0.14183440  1
  F  F6  1  0.72137930  0.61058674  0.35816560  1
  F  F7  1  0.77862070  0.38941326  0.85816560  1
  F  F8  1  0.72137930  0.88941326  0.35816560  1
  F  F9  1  0.77862070  0.11058674  0.85816560  1
  F  F10  1  0.27862070  0.38941326  0.64183440  1
  F  F11  1  0.22137930  0.61058674  0.14183440  1
  F  F12  1  0.62501544  0.37939291  0.36641278  1
  F  F13  1  0.87498456  0.62060709  0.86641278  1
  F  F14  1  0.37498456  0.87939291  0.63358722  1
  F  F15  1  0.12501544  0.12060709  0.13358722  1
  F  F16  1  0.37498456  0.62060709  0.63358722  1
  F  F17  1  0.12501544  0.37939291  0.13358722  1
  F  F18  1  0.62501544  0.12060709  0.36641278  1
  F  F19  1  0.87498456  0.87939291  0.86641278  1
  F  F20  1  0.82935636  0.25000000  0.59533174  1
  F  F21  1  0.67064364  0.75000000  0.09533174  1
  F  F22  1  0.17064364  0.75000000  0.40466826  1
  F  F23  1  0.32935636  0.25000000  0.90466826  1
  Li  Li24  1  0.46046788  0.95358738  0.35031145  1
  Li  Li25  1  0.03953212  -0.95358738  0.85031145  1
  Li  Li26  1  -0.46046788  1.45358738  -0.35031145  1
  Li  Li27  1  0.96046788  -0.45358738  0.14968855  1
  Li  Li28  1  -0.46046788  -0.95358738  -0.35031145  1
  Li  Li29  1  0.96046788  0.95358738  0.14968855  1
  Li  Li30  1  0.46046788  -0.45358738  0.35031145  1
  Li  Li31  1  0.03953212  1.45358738  0.85031145  1
  Li  Li32  1  0.79213509  0.34077240  0.38097654  1
  Li  Li33  1  0.70786491  0.65922760  0.88097654  1
  Li  Li34  1  0.20786491  0.84077240  0.61902346  1
  Li  Li35  1  0.29213509  0.15922760  0.11902346  1
  Li  Li36  1  0.20786491  0.65922760  0.61902346  1
  Li  Li37  1  0.29213509  0.34077240  0.11902346  1
  Li  Li38  1  0.79213509  0.15922760  0.38097654  1
  Li  Li39  1  0.70786491  0.84077240  0.88097654  1
  Li  Li40  1  0.93380806  0.88176708  0.35880351  1
  Li  Li41  1  0.56619194  0.11823292  0.85880351  1
  Li  Li42  1  0.06619194  0.38176708  0.64119649  1
  Li  Li43  1  0.43380806  0.61823292  0.14119649  1
  Li  Li44  1  0.06619194  0.11823292  0.64119649  1
  Li  Li45  1  0.43380806  0.88176708  0.14119649  1
  Li  Li46  1  0.93380806  0.61823292  0.35880351  1
  Li  Li47  1  0.56619194  0.38176708  0.85880351  1
