# generated using pymatgen
data_LiF
_symmetry_space_group_name_H-M   'P 1'
_cell_length_a   12.51148945
_cell_length_b   12.51148945
_cell_length_c   13.17603274
_cell_angle_alpha   90.00000000
_cell_angle_beta   90.00000000
_cell_angle_gamma   90.00000000
_symmetry_Int_Tables_number   1
_chemical_formula_structural   LiF
_chemical_formula_sum   'Li64 F64'
_cell_volume   2062.54148951
_cell_formula_units_Z   64
loop_
 _symmetry_equiv_pos_site_id
 _symmetry_equiv_pos_as_xyz
  1  'x, y, z'
loop_
 _atom_site_type_symbol
 _atom_site_label
 _atom_site_symmetry_multiplicity
 _atom_site_fract_x
 _atom_site_fract_y
 _atom_site_fract_z
 _atom_site_occupancy
  F  F0  1  0.68048252  0.99648722  0.90704409  1
  F  F1  1  -0.18048252  -0.99648722  1.40704409  1
  F  F2  1  -0.74648722  1.43048252  1.15704409  1
  F  F3  1  1.24648722  -0.43048252  1.65704409  1
  F  F4  1  -0.18048252  0.99648722  -0.90704409  1
  F  F5  1  0.68048252  -0.99648722  -0.40704409  1
  F  F6  1  1.24648722  1.43048252  -0.15704409  1
  F  F7  1  -0.74648722  -0.43048252  -0.65704409  1
  F  F8  1  -0.68048252  -0.99648722  -0.90704409  1
  F  F9  1  1.18048252  0.99648722  -0.40704409  1
  F  F10  1  1.74648722  -0.43048252  -0.15704409  1
  F  F11  1  -0.24648722  1.43048252  -0.65704409  1
  F  F12  1  1.18048252  -0.99648722  0.90704409  1
  F  F13  1  -0.68048252  0.99648722  1.40704409  1
  F  F14  1  -0.24648722  -0.43048252  1.15704409  1
  F  F15  1  1.74648722  1.43048252  1.65704409  1
  F  F16  1  1.18048252  1.49648722  1.40704409  1
  F  F17  1  0.31951748  -0.49648722  1.90704409  1
  F  F18  1  -0.24648722  1.93048252  1.65704409  1
  F  F19  1  1.74648722  0.06951748  2.15704409  1
  F  F20  1  0.31951748  1.49648722  -0.40704409  1
  F  F21  1  1.18048252  -0.49648722  0.09295591  1
  F  F22  1  1.74648722  1.93048252  0.34295591  1
  F  F23  1  -0.24648722  0.06951748  -0.15704409  1
  F  F24  1  -0.18048252  -0.49648722  -0.40704409  1
  F  F25  1  1.68048252  1.49648722  0.09295591  1
  F  F26  1  2.24648722  0.06951748  0.34295591  1
  F  F27  1  0.25351278  1.93048252  -0.15704409  1
  F  F28  1  1.68048252  -0.49648722  1.40704409  1
  F  F29  1  -0.18048252  1.49648722  1.90704409  1
  F  F30  1  0.25351278  0.06951748  1.65704409  1
  F  F31  1  2.24648722  1.93048252  2.15704409  1
  F  F32  1  0.96989501  0.21989501  0.12500000  1
  F  F33  1  0.53010499  0.78010499  0.62500000  1
  F  F34  1  0.03010499  0.71989501  0.37500000  1
  F  F35  1  0.46989501  0.28010499  0.87500000  1
  F  F36  1  0.03010499  0.78010499  0.87500000  1
  F  F37  1  0.46989501  0.21989501  0.37500000  1
  F  F38  1  0.96989501  0.28010499  0.62500000  1
  F  F39  1  0.53010499  0.71989501  0.12500000  1
  F  F40  1  0.46989501  0.71989501  0.62500000  1
  F  F41  1  0.03010499  0.28010499  0.12500000  1
  F  F42  1  0.53010499  0.21989501  0.87500000  1
  F  F43  1  0.96989501  0.78010499  0.37500000  1
  F  F44  1  0.53010499  0.28010499  0.37500000  1
  F  F45  1  0.96989501  0.71989501  0.87500000  1
  F  F46  1  0.46989501  0.78010499  0.12500000  1
  F  F47  1  0.03010499  0.21989501  0.62500000  1
  F  F48  1  0.00000000  0.25000000  0.04002832  1
  F  F49  1  0.00000000  0.75000000  0.29002832  1
  F  F50  1  0.50000000  0.25000000  0.95997168  1
  F  F51  1  0.50000000  0.75000000  0.70997168  1
  F  F52  1  0.00000000  0.75000000  0.95997168  1
  F  F53  1  0.00000000  0.25000000  0.70997168  1
  F  F54  1  0.50000000  0.75000000  0.04002832  1
  F  F55  1  0.50000000  0.25000000  0.29002832  1
  F  F56  1  0.50000000  0.75000000  0.54002832  1
  F  F57  1  0.50000000  0.25000000  0.79002832  1
  F  F58  1  0.00000000  0.75000000  0.45997168  1
  F  F59  1  0.00000000  0.25000000  0.20997168  1
  F  F60  1  0.50000000  0.25000000  0.45997168  1
  F  F61  1  0.50000000  0.75000000  0.20997168  1
  F  F62  1  0.00000000  0.25000000  0.54002832  1
  F  F63  1  0.00000000  0.75000000  0.79002832  1
  Li  Li64  1  0.57629650  0.79232571  0.42713956  1
  Li  Li65  1  0.92370350  0.20767429  0.92713956  1
  Li  Li66  1  0.45767429  0.32629650  0.67713956  1
  Li  Li67  1  0.04232571  0.67370350  0.17713956  1
  Li  Li68  1  0.92370350  0.79232571  0.57286044  1
  Li  Li69  1  0.57629650  0.20767429  0.07286044  1
  Li  Li70  1  0.04232571  0.32629650  0.32286044  1
  Li  Li71  1  0.45767429  0.67370350  0.82286044  1
  Li  Li72  1  0.42370350  0.20767429  0.57286044  1
  Li  Li73  1  0.07629650  0.79232571  0.07286044  1
  Li  Li74  1  0.54232571  0.67370350  0.32286044  1
  Li  Li75  1  0.95767429  0.32629650  0.82286044  1
  Li  Li76  1  0.07629650  0.20767429  0.42713956  1
  Li  Li77  1  0.42370350  0.79232571  0.92713956  1
  Li  Li78  1  0.95767429  0.67370350  0.67713956  1
  Li  Li79  1  0.54232571  0.32629650  0.17713956  1
  Li  Li80  1  0.07629650  0.29232571  0.92713956  1
  Li  Li81  1  0.42370350  0.70767429  0.42713956  1
  Li  Li82  1  0.95767429  0.82629650  0.17713956  1
  Li  Li83  1  0.54232571  0.17370350  0.67713956  1
  Li  Li84  1  0.42370350  0.29232571  0.07286044  1
  Li  Li85  1  0.07629650  0.70767429  0.57286044  1
  Li  Li86  1  0.54232571  0.82629650  0.82286044  1
  Li  Li87  1  0.95767429  0.17370350  0.32286044  1
  Li  Li88  1  0.92370350  0.70767429  0.07286044  1
  Li  Li89  1  0.57629650  0.29232571  0.57286044  1
  Li  Li90  1  0.04232571  0.17370350  0.82286044  1
  Li  Li91  1  0.45767429  0.82629650  0.32286044  1
  Li  Li92  1  0.57629650  0.70767429  0.92713956  1
  Li  Li93  1  0.92370350  0.29232571  0.42713956  1
  Li  Li94  1  0.45767429  0.17370350  0.17713956  1
  Li  Li95  1  0.04232571  0.82629650  0.67713956  1
  Li  Li96  1  0.87141393  0.60499829  0.00913893  1
  Li  Li97  1  0.62858607  0.39500171  0.50913893  1
  Li  Li98  1  0.64500171  0.62141393  0.25913893  1
  Li  Li99  1  0.85499829  0.37858607  0.75913893  1
  Li  Li100  1  0.62858607  0.60499829  0.99086107  1
  Li  Li101  1  0.87141393  0.39500171  0.49086107  1
  Li  Li102  1  0.85499829  0.62141393  0.74086107  1
  Li  Li103  1  0.64500171  0.37858607  0.24086107  1
  Li  Li104  1  0.12858607  0.39500171  0.99086107  1
  Li  Li105  1  0.37141393  0.60499829  0.49086107  1
  Li  Li106  1  0.35499829  0.37858607  0.74086107  1
  Li  Li107  1  0.14500171  0.62141393  0.24086107  1
  Li  Li108  1  0.37141393  0.39500171  0.00913893  1
  Li  Li109  1  0.12858607  0.60499829  0.50913893  1
  Li  Li110  1  0.14500171  0.37858607  0.25913893  1
  Li  Li111  1  0.35499829  0.62141393  0.75913893  1
  Li  Li112  1  0.37141393  0.10499829  0.50913893  1
  Li  Li113  1  0.12858607  0.89500171  0.00913893  1
  Li  Li114  1  0.14500171  0.12141393  0.75913893  1
  Li  Li115  1  0.35499829  0.87858607  0.25913893  1
  Li  Li116  1  0.12858607  0.10499829  0.49086107  1
  Li  Li117  1  0.37141393  0.89500171  0.99086107  1
  Li  Li118  1  0.35499829  0.12141393  0.24086107  1
  Li  Li119  1  0.14500171  0.87858607  0.74086107  1
  Li  Li120  1  0.62858607  0.89500171  0.49086107  1
  Li  Li121  1  0.87141393  0.10499829  0.99086107  1
  Li  Li122  1  0.85499829  0.87858607  0.24086107  1
  Li  Li123  1  0.64500171  0.12141393  0.74086107  1
  Li  Li124  1  0.87141393  0.89500171  0.50913893  1
  Li  Li125  1  0.62858607  0.10499829  0.00913893  1
  Li  Li126  1  0.64500171  0.87858607  0.75913893  1
  Li  Li127  1  0.85499829  0.12141393  0.25913893  1
