# generated using pymatgen
data_LiF
_symmetry_space_group_name_H-M   'P 1'
_cell_length_a   8.57696480
_cell_length_b   8.57696480
_cell_length_c   6.79596312
_cell_angle_alpha   90.00000000
_cell_angle_beta   90.00000000
_cell_angle_gamma   120.00000000
_symmetry_Int_Tables_number   1
_chemical_formula_structural   LiF
_chemical_formula_sum   'Li15 F15'
_cell_volume   432.96112167
_cell_formula_units_Z   15
loop_
 _symmetry_equiv_pos_site_id
 _symmetry_equiv_pos_as_xyz
  1  'x, y, z'
loop_
 _atom_site_type_symbol
 _atom_site_label
 _atom_site_symmetry_multiplicity
 _atom_site_fract_x
 _atom_site_fract_y
 _atom_site_fract_z
 _atom_site_occupancy
  F  F0  1  0.08258865  0.91741135  0.00000000  1
  F  F1  1  0.08258865  0.16517731  0.00000000  1
  F  F2  1  0.83482269  0.91741135  0.00000000  1
  F  F3  1  0.61176130  0.61626852  0.20743075  1
  F  F4  1  0.38373148  0.99549278  0.20743075  1
  F  F5  1  0.00450722  0.38823870  0.20743075  1
  F  F6  1  0.38373148  0.38823870  0.79256925  1
  F  F7  1  0.00450722  0.61626852  0.79256925  1
  F  F8  1  0.61176130  0.99549278  0.79256925  1
  F  F9  1  0.16459848  0.83540152  0.50000000  1
  F  F10  1  0.16459848  0.32919696  0.50000000  1
  F  F11  1  0.67080304  0.83540152  0.50000000  1
  F  F12  1  0.42054293  0.57945707  0.00000000  1
  F  F13  1  0.42054293  0.84108586  0.00000000  1
  F  F14  1  0.15891414  0.57945707  0.00000000  1
  Li  Li15  1  0.66666667  0.33333333  0.50000000  1
  Li  Li16  1  0.00000000  0.00000000  0.50000000  1
  Li  Li17  1  0.17632318  0.00314400  0.33236362  1
  Li  Li18  1  -0.00314400  0.17317918  0.33236362  1
  Li  Li19  1  -0.17317918  -0.17632318  0.33236362  1
  Li  Li20  1  -0.00314400  -0.17632318  -0.33236362  1
  Li  Li21  1  -0.17317918  0.00314400  -0.33236362  1
  Li  Li22  1  0.17632318  0.17317918  -0.33236362  1
  Li  Li23  1  0.18163526  0.50609114  0.19330464  1
  Li  Li24  1  0.49390886  0.67554412  0.19330464  1
  Li  Li25  1  0.32445588  0.81836474  0.19330464  1
  Li  Li26  1  0.49390886  0.81836474  0.80669536  1
  Li  Li27  1  0.32445588  0.50609114  0.80669536  1
  Li  Li28  1  0.18163526  0.67554412  0.80669536  1
  Li  Li29  1  0.66666667  0.33333333  -0.00000000  1
