# generated using pymatgen
data_LiF
_symmetry_space_group_name_H-M   'P 1'
_cell_length_a   13.31845951
_cell_length_b   6.36085234
_cell_length_c   9.81085472
_cell_angle_alpha   90.00000000
_cell_angle_beta   90.00000000
_cell_angle_gamma   90.00000000
_symmetry_Int_Tables_number   1
_chemical_formula_structural   LiF
_chemical_formula_sum   'Li34 F34'
_cell_volume   831.14376864
_cell_formula_units_Z   34
loop_
 _symmetry_equiv_pos_site_id
 _symmetry_equiv_pos_as_xyz
  1  'x, y, z'
loop_
 _atom_site_type_symbol
 _atom_site_label
 _atom_site_symmetry_multiplicity
 _atom_site_fract_x
 _atom_site_fract_y
 _atom_site_fract_z
 _atom_site_occupancy
  F  F0  1  0.60287883  0.24558595  0.33228344  1
  F  F1  1  0.39712117  0.75441405  0.33228344  1
  F  F2  1  0.89712117  0.74558595  0.66771656  1
  F  F3  1  0.10287883  0.25441405  0.66771656  1
  F  F4  1  0.39712117  0.75441405  0.66771656  1
  F  F5  1  0.60287883  0.24558595  0.66771656  1
  F  F6  1  0.10287883  0.25441405  0.33228344  1
  F  F7  1  0.89712117  0.74558595  0.33228344  1
  F  F8  1  0.49216004  0.42751660  0.06352977  1
  F  F9  1  0.50783996  0.57248340  0.06352977  1
  F  F10  1  0.00783996  0.92751660  0.93647023  1
  F  F11  1  0.99216004  0.07248340  0.93647023  1
  F  F12  1  0.50783996  0.57248340  0.93647023  1
  F  F13  1  0.49216004  0.42751660  0.93647023  1
  F  F14  1  0.99216004  0.07248340  0.06352977  1
  F  F15  1  0.00783996  0.92751660  0.06352977  1
  F  F16  1  0.10649028  0.36858913  0.50000000  1
  F  F17  1  0.89350972  0.63141087  0.50000000  1
  F  F18  1  0.39350972  0.86858913  0.50000000  1
  F  F19  1  0.60649028  0.13141087  0.50000000  1
  F  F20  1  0.84079858  0.71465870  0.88459432  1
  F  F21  1  0.15920142  0.28534130  0.88459432  1
  F  F22  1  0.65920142  0.21465870  0.11540568  1
  F  F23  1  0.34079858  0.78534130  0.11540568  1
  F  F24  1  0.15920142  0.28534130  0.11540568  1
  F  F25  1  0.84079858  0.71465870  0.11540568  1
  F  F26  1  0.34079858  0.78534130  0.88459432  1
  F  F27  1  0.65920142  0.21465870  0.88459432  1
  F  F28  1  0.00000000  0.00000000  0.42650144  1
  F  F29  1  0.50000000  0.50000000  0.57349856  1
  F  F30  1  0.00000000  0.00000000  0.57349856  1
  F  F31  1  0.50000000  0.50000000  0.42650144  1
  F  F32  1  0.00000000  0.50000000  0.50000000  1
  F  F33  1  0.50000000  0.00000000  0.50000000  1
  Li  Li34  1  0.00000000  0.50000000  0.15456700  1
  Li  Li35  1  0.50000000  0.00000000  0.84543300  1
  Li  Li36  1  0.00000000  0.50000000  0.84543300  1
  Li  Li37  1  0.50000000  0.00000000  0.15456700  1
  Li  Li38  1  0.00000000  0.50000000  0.00000000  1
  Li  Li39  1  0.50000000  0.00000000  0.00000000  1
  Li  Li40  1  0.97690529  0.61435535  0.63609903  1
  Li  Li41  1  -0.97690529  -0.61435535  0.63609903  1
  Li  Li42  1  -0.47690529  1.11435535  -0.63609903  1
  Li  Li43  1  1.47690529  -0.11435535  -0.63609903  1
  Li  Li44  1  -0.97690529  -0.61435535  -0.63609903  1
  Li  Li45  1  0.97690529  0.61435535  -0.63609903  1
  Li  Li46  1  1.47690529  -0.11435535  0.63609903  1
  Li  Li47  1  -0.47690529  1.11435535  0.63609903  1
  Li  Li48  1  0.29488309  0.02784813  0.22774306  1
  Li  Li49  1  0.70511691  0.97215187  0.22774306  1
  Li  Li50  1  0.20511691  0.52784813  0.77225694  1
  Li  Li51  1  0.79488309  0.47215187  0.77225694  1
  Li  Li52  1  0.70511691  0.97215187  0.77225694  1
  Li  Li53  1  0.29488309  0.02784813  0.77225694  1
  Li  Li54  1  0.79488309  0.47215187  0.22774306  1
  Li  Li55  1  0.20511691  0.52784813  0.22774306  1
  Li  Li56  1  0.77966816  0.23534733  0.78501979  1
  Li  Li57  1  0.22033184  0.76465267  0.78501979  1
  Li  Li58  1  0.72033184  0.73534733  0.21498021  1
  Li  Li59  1  0.27966816  0.26465267  0.21498021  1
  Li  Li60  1  0.22033184  0.76465267  0.21498021  1
  Li  Li61  1  0.77966816  0.23534733  0.21498021  1
  Li  Li62  1  0.27966816  0.26465267  0.78501979  1
  Li  Li63  1  0.72033184  0.73534733  0.78501979  1
  Li  Li64  1  0.56434023  0.48727706  0.50000000  1
  Li  Li65  1  0.43565977  0.51272294  0.50000000  1
  Li  Li66  1  0.93565977  0.98727706  0.50000000  1
  Li  Li67  1  0.06434023  0.01272294  0.50000000  1
