# generated using pymatgen
data_Li3YP3
_symmetry_space_group_name_H-M   'P 1'
_cell_length_a   5.47572856
_cell_length_b   5.63185672
_cell_length_c   7.35267796
_cell_angle_alpha   94.26709213
_cell_angle_beta   99.29283954
_cell_angle_gamma   107.13921316
_symmetry_Int_Tables_number   1
_chemical_formula_structural   Li3YP3
_chemical_formula_sum   'Li3 Y1 P3'
_cell_volume   212.03589397
_cell_formula_units_Z   1
loop_
 _symmetry_equiv_pos_site_id
 _symmetry_equiv_pos_as_xyz
  1  'x, y, z'
loop_
 _atom_site_type_symbol
 _atom_site_label
 _atom_site_symmetry_multiplicity
 _atom_site_fract_x
 _atom_site_fract_y
 _atom_site_fract_z
 _atom_site_occupancy
  P  P0  1  0.00000000  0.00000000  0.00000000  1
  P  P1  1  0.33300000  0.66700000  0.25000000  1
  P  P2  1  0.66700000  0.33300000  0.50000000  1
  Li  Li3  1  0.00000000  0.00000000  0.75000000  1
  Li  Li4  1  0.12368717  0.22765722  0.70927583  1
  Li  Li5  1  0.63202275  0.06771307  0.61371054  1
  Y  Y6  1  0.19494310  0.35301663  0.77959288  1
