# generated using pymatgen
data_LiYAs2P
_symmetry_space_group_name_H-M   'P 1'
_cell_length_a   5.24856685
_cell_length_b   5.30762334
_cell_length_c   6.95642148
_cell_angle_alpha   94.36897926
_cell_angle_beta   99.51472853
_cell_angle_gamma   107.54845325
_symmetry_Int_Tables_number   1
_chemical_formula_structural   LiYAs2P
_chemical_formula_sum   'Li2 Y2 As4 P2'
_cell_volume   180.58384057
_cell_formula_units_Z   2
loop_
 _symmetry_equiv_pos_site_id
 _symmetry_equiv_pos_as_xyz
  1  'x, y, z'
loop_
 _atom_site_type_symbol
 _atom_site_label
 _atom_site_symmetry_multiplicity
 _atom_site_fract_x
 _atom_site_fract_y
 _atom_site_fract_z
 _atom_site_occupancy
  P  P0  1  0.12500000  0.12500000  0.12500000  1
  P  P1  1  0.50000000  0.50000000  0.50000000  1
  As  As2  1  0.25000000  0.25000000  0.25000000  1
  As  As3  1  0.75000000  0.75000000  0.75000000  1
  As  As4  1  0.16685850  0.51832942  0.05179104  1
  As  As5  1  0.45197245  0.88495670  0.89993419  1
  Li  Li6  1  0.62782629  0.39610196  0.47162877  1
  Li  Li7  1  0.88843964  0.29921827  0.23181011  1
  Y  Y8  1  0.51676284  0.78018907  0.35659891  1
  Y  Y9  1  0.08878204  0.24408639  0.63792168  1
