# generated using pymatgen
data_Li2Si4Te3F12
_symmetry_space_group_name_H-M   'P 1'
_cell_length_a   7.77123413
_cell_length_b   7.77123413
_cell_length_c   14.17148182
_cell_angle_alpha   90.00000000
_cell_angle_beta   90.00000000
_cell_angle_gamma   90.00000000
_symmetry_Int_Tables_number   1
_chemical_formula_structural   Li2Si4Te3F12
_chemical_formula_sum   'Li8 Si16 Te12 F48'
_cell_volume   855.84526283
_cell_formula_units_Z   4
loop_
 _symmetry_equiv_pos_site_id
 _symmetry_equiv_pos_as_xyz
  1  'x, y, z'
loop_
 _atom_site_type_symbol
 _atom_site_label
 _atom_site_symmetry_multiplicity
 _atom_site_fract_x
 _atom_site_fract_y
 _atom_site_fract_z
 _atom_site_occupancy
  F  F0  1  0.00000000  0.84129712  0.02360436  1
  F  F1  1  0.50000000  0.15870288  0.52360436  1
  F  F2  1  0.40870288  0.75000000  0.27360436  1
  F  F3  1  0.09129712  0.25000000  0.77360436  1
  F  F4  1  0.50000000  0.84129712  0.47639564  1
  F  F5  1  0.00000000  0.15870288  0.97639564  1
  F  F6  1  0.09129712  0.75000000  0.22639564  1
  F  F7  1  0.40870288  0.25000000  0.72639564  1
  F  F8  1  0.50000000  0.34129712  0.52360436  1
  F  F9  1  0.00000000  0.65870288  0.02360436  1
  F  F10  1  0.90870288  0.25000000  0.77360436  1
  F  F11  1  0.59129712  0.75000000  0.27360436  1
  F  F12  1  0.00000000  0.34129712  0.97639564  1
  F  F13  1  0.50000000  0.65870288  0.47639564  1
  F  F14  1  0.59129712  0.25000000  0.72639564  1
  F  F15  1  0.90870288  0.75000000  0.22639564  1
  F  F16  1  0.69633176  0.35712183  0.03890463  1
  F  F17  1  -0.19633176  -0.35712183  0.53890463  1
  F  F18  1  -0.10712183  1.44633176  0.28890463  1
  F  F19  1  0.60712183  -0.44633176  0.78890463  1
  F  F20  1  -0.19633176  0.35712183  0.46109537  1
  F  F21  1  0.69633176  -0.35712183  -0.03890463  1
  F  F22  1  0.60712183  1.44633176  0.21109537  1
  F  F23  1  -0.10712183  -0.44633176  0.71109537  1
  F  F24  1  -0.69633176  -0.35712183  -0.03890463  1
  F  F25  1  1.19633176  0.35712183  0.46109537  1
  F  F26  1  1.10712183  -0.44633176  0.71109537  1
  F  F27  1  0.39287817  1.44633176  0.21109537  1
  F  F28  1  1.19633176  -0.35712183  0.53890463  1
  F  F29  1  -0.69633176  0.35712183  0.03890463  1
  F  F30  1  0.39287817  -0.44633176  0.78890463  1
  F  F31  1  1.10712183  1.44633176  0.28890463  1
  F  F32  1  1.19633176  0.85712183  0.53890463  1
  F  F33  1  0.30366824  0.14287817  1.03890463  1
  F  F34  1  0.39287817  1.94633176  0.78890463  1
  F  F35  1  1.10712183  0.05366824  1.28890463  1
  F  F36  1  0.30366824  0.85712183  0.96109537  1
  F  F37  1  1.19633176  0.14287817  0.46109537  1
  F  F38  1  1.10712183  1.94633176  0.71109537  1
  F  F39  1  0.39287817  0.05366824  1.21109537  1
  F  F40  1  -0.19633176  0.14287817  0.46109537  1
  F  F41  1  1.69633176  0.85712183  0.96109537  1
  F  F42  1  1.60712183  0.05366824  1.21109537  1
  F  F43  1  0.89287817  1.94633176  0.71109537  1
  F  F44  1  1.69633176  0.14287817  1.03890463  1
  F  F45  1  -0.19633176  0.85712183  0.53890463  1
  F  F46  1  0.89287817  0.05366824  1.28890463  1
  F  F47  1  1.60712183  1.94633176  0.78890463  1
  Li  Li48  1  0.00000000  0.00000000  0.50000000  1
  Li  Li49  1  0.50000000  0.00000000  0.00000000  1
  Li  Li50  1  0.25000000  0.75000000  0.75000000  1
  Li  Li51  1  0.25000000  0.25000000  0.25000000  1
  Li  Li52  1  0.50000000  0.50000000  0.00000000  1
  Li  Li53  1  0.00000000  0.50000000  0.50000000  1
  Li  Li54  1  0.75000000  0.25000000  0.25000000  1
  Li  Li55  1  0.75000000  0.75000000  0.75000000  1
  Si  Si56  1  0.92595770  -0.00000000  0.00000000  1
  Si  Si57  1  0.57404230  0.00000000  0.50000000  1
  Si  Si58  1  0.25000000  0.67595770  0.25000000  1
  Si  Si59  1  0.25000000  0.32404230  0.75000000  1
  Si  Si60  1  0.07404230  0.00000000  0.00000000  1
  Si  Si61  1  0.42595770  -0.00000000  0.50000000  1
  Si  Si62  1  0.75000000  0.32404230  0.75000000  1
  Si  Si63  1  0.75000000  0.67595770  0.25000000  1
  Si  Si64  1  0.42595770  0.50000000  0.50000000  1
  Si  Si65  1  0.07404230  0.50000000  0.00000000  1
  Si  Si66  1  0.75000000  0.17595770  0.75000000  1
  Si  Si67  1  0.75000000  0.82404230  0.25000000  1
  Si  Si68  1  0.57404230  0.50000000  0.50000000  1
  Si  Si69  1  0.92595770  0.50000000  0.00000000  1
  Si  Si70  1  0.25000000  0.82404230  0.25000000  1
  Si  Si71  1  0.25000000  0.17595770  0.75000000  1
  Te  Te72  1  0.00000000  0.25000000  0.13050599  1
  Te  Te73  1  0.00000000  0.75000000  0.38050599  1
  Te  Te74  1  0.50000000  0.25000000  0.36949401  1
  Te  Te75  1  0.50000000  0.75000000  0.11949401  1
  Te  Te76  1  0.50000000  0.75000000  0.63050599  1
  Te  Te77  1  0.50000000  0.25000000  0.88050599  1
  Te  Te78  1  0.00000000  0.75000000  0.86949401  1
  Te  Te79  1  0.00000000  0.25000000  0.61949401  1
  Te  Te80  1  0.00000000  0.25000000  0.37500000  1
  Te  Te81  1  0.00000000  0.75000000  0.62500000  1
  Te  Te82  1  0.50000000  0.75000000  0.87500000  1
  Te  Te83  1  0.50000000  0.25000000  0.12500000  1
