# generated using pymatgen
data_LiF
_symmetry_space_group_name_H-M   'P 1'
_cell_length_a   5.52148409
_cell_length_b   6.25460410
_cell_length_c   16.47372915
_cell_angle_alpha   90.00000000
_cell_angle_beta   90.00000000
_cell_angle_gamma   90.00000000
_symmetry_Int_Tables_number   1
_chemical_formula_structural   LiF
_chemical_formula_sum   'Li24 F24'
_cell_volume   568.91524420
_cell_formula_units_Z   24
loop_
 _symmetry_equiv_pos_site_id
 _symmetry_equiv_pos_as_xyz
  1  'x, y, z'
loop_
 _atom_site_type_symbol
 _atom_site_label
 _atom_site_symmetry_multiplicity
 _atom_site_fract_x
 _atom_site_fract_y
 _atom_site_fract_z
 _atom_site_occupancy
  F  F0  1  0.81838878  0.97204712  0.79970065  1
  F  F1  1  -0.81838878  -0.97204712  0.79970065  1
  F  F2  1  -0.31838878  1.47204712  -0.79970065  1
  F  F3  1  1.31838878  -0.47204712  -0.79970065  1
  F  F4  1  -0.81838878  -0.97204712  -0.79970065  1
  F  F5  1  0.81838878  0.97204712  -0.79970065  1
  F  F6  1  1.31838878  -0.47204712  0.79970065  1
  F  F7  1  -0.31838878  1.47204712  0.79970065  1
  F  F8  1  0.00000000  0.50000000  0.00000000  1
  F  F9  1  0.50000000  -0.00000000  -0.00000000  1
  F  F10  1  0.79396025  0.85672855  0.07099872  1
  F  F11  1  0.20603975  0.14327145  0.07099872  1
  F  F12  1  0.70603975  0.35672855  0.92900128  1
  F  F13  1  0.29396025  0.64327145  0.92900128  1
  F  F14  1  0.20603975  0.14327145  0.92900128  1
  F  F15  1  0.79396025  0.85672855  0.92900128  1
  F  F16  1  0.29396025  0.64327145  0.07099872  1
  F  F17  1  0.70603975  0.35672855  0.07099872  1
  F  F18  1  0.00000000  0.00000000  0.47817352  1
  F  F19  1  0.50000000  0.50000000  0.52182648  1
  F  F20  1  0.00000000  0.00000000  0.52182648  1
  F  F21  1  0.50000000  0.50000000  0.47817352  1
  F  F22  1  0.00000000  0.00000000  0.00000000  1
  F  F23  1  0.50000000  0.50000000  0.00000000  1
  Li  Li24  1  0.71595084  0.60930570  0.39252917  1
  Li  Li25  1  0.28404916  0.39069430  0.39252917  1
  Li  Li26  1  0.78404916  0.10930570  0.60747083  1
  Li  Li27  1  0.21595084  0.89069430  0.60747083  1
  Li  Li28  1  0.28404916  0.39069430  0.60747083  1
  Li  Li29  1  0.71595084  0.60930570  0.60747083  1
  Li  Li30  1  0.21595084  0.89069430  0.39252917  1
  Li  Li31  1  0.78404916  0.10930570  0.39252917  1
  Li  Li32  1  0.24851875  0.05107763  0.12475671  1
  Li  Li33  1  0.75148125  0.94892237  0.12475671  1
  Li  Li34  1  0.25148125  0.55107763  0.87524329  1
  Li  Li35  1  0.74851875  0.44892237  0.87524329  1
  Li  Li36  1  0.75148125  0.94892237  0.87524329  1
  Li  Li37  1  0.24851875  0.05107763  0.87524329  1
  Li  Li38  1  0.74851875  0.44892237  0.12475671  1
  Li  Li39  1  0.25148125  0.55107763  0.12475671  1
  Li  Li40  1  0.00000000  0.50000000  0.40095560  1
  Li  Li41  1  0.50000000  -0.00000000  0.59904440  1
  Li  Li42  1  0.00000000  0.50000000  0.59904440  1
  Li  Li43  1  0.50000000  -0.00000000  0.40095560  1
  Li  Li44  1  0.00000000  0.00000000  0.86116236  1
  Li  Li45  1  0.50000000  0.50000000  0.13883764  1
  Li  Li46  1  0.00000000  0.00000000  0.13883764  1
  Li  Li47  1  0.50000000  0.50000000  0.86116236  1
