# generated using pymatgen
data_LiF
_symmetry_space_group_name_H-M   'P 1'
_cell_length_a   9.39745070
_cell_length_b   7.62834017
_cell_length_c   7.11771996
_cell_angle_alpha   90.00000000
_cell_angle_beta   90.00000000
_cell_angle_gamma   90.00000000
_symmetry_Int_Tables_number   1
_chemical_formula_structural   LiF
_chemical_formula_sum   'Li24 F24'
_cell_volume   510.24763953
_cell_formula_units_Z   24
loop_
 _symmetry_equiv_pos_site_id
 _symmetry_equiv_pos_as_xyz
  1  'x, y, z'
loop_
 _atom_site_type_symbol
 _atom_site_label
 _atom_site_symmetry_multiplicity
 _atom_site_fract_x
 _atom_site_fract_y
 _atom_site_fract_z
 _atom_site_occupancy
  F  F0  1  0.08298841  0.66008455  0.50636358  1
  F  F1  1  0.41701159  0.33991545  0.00636358  1
  F  F2  1  0.91701159  0.16008455  0.49363642  1
  F  F3  1  0.58298841  0.83991545  0.99363642  1
  F  F4  1  0.91701159  0.33991545  0.49363642  1
  F  F5  1  0.58298841  0.66008455  0.99363642  1
  F  F6  1  0.08298841  0.83991545  0.50636358  1
  F  F7  1  0.41701159  0.16008455  0.00636358  1
  F  F8  1  0.19442131  0.06585085  0.62634937  1
  F  F9  1  0.30557869  0.93414915  0.12634937  1
  F  F10  1  0.80557869  0.56585085  0.37365063  1
  F  F11  1  0.69442131  0.43414915  0.87365063  1
  F  F12  1  0.80557869  0.93414915  0.37365063  1
  F  F13  1  0.69442131  0.06585085  0.87365063  1
  F  F14  1  0.19442131  0.43414915  0.62634937  1
  F  F15  1  0.30557869  0.56585085  0.12634937  1
  F  F16  1  0.25866100  0.41042548  0.85638959  1
  F  F17  1  0.24133900  0.58957452  0.35638959  1
  F  F18  1  0.74133900  0.91042548  0.14361041  1
  F  F19  1  0.75866100  0.08957452  0.64361041  1
  F  F20  1  0.74133900  0.58957452  0.14361041  1
  F  F21  1  0.75866100  0.41042548  0.64361041  1
  F  F22  1  0.25866100  0.08957452  0.85638959  1
  F  F23  1  0.24133900  0.91042548  0.35638959  1
  Li  Li24  1  0.26594379  0.25000000  0.51771945  1
  Li  Li25  1  0.23405621  0.75000000  0.01771945  1
  Li  Li26  1  0.73405621  0.75000000  0.48228055  1
  Li  Li27  1  0.76594379  0.25000000  0.98228055  1
  Li  Li28  1  0.00000000  0.00000000  0.00000000  1
  Li  Li29  1  0.50000000  0.00000000  0.50000000  1
  Li  Li30  1  0.00000000  0.50000000  -0.00000000  1
  Li  Li31  1  0.50000000  0.50000000  0.50000000  1
  Li  Li32  1  0.34657621  0.25000000  0.93508750  1
  Li  Li33  1  0.15342379  0.75000000  0.43508750  1
  Li  Li34  1  0.65342379  0.75000000  0.06491250  1
  Li  Li35  1  0.84657621  0.25000000  0.56491250  1
  Li  Li36  1  0.92023480  0.95577648  0.72075726  1
  Li  Li37  1  -0.42023480  -0.95577648  1.22075726  1
  Li  Li38  1  -0.92023480  1.45577648  -0.72075726  1
  Li  Li39  1  1.42023480  -0.45577648  -0.22075726  1
  Li  Li40  1  -0.92023480  -0.95577648  -0.72075726  1
  Li  Li41  1  1.42023480  0.95577648  -0.22075726  1
  Li  Li42  1  0.92023480  -0.45577648  0.72075726  1
  Li  Li43  1  -0.42023480  1.45577648  1.22075726  1
  Li  Li44  1  0.63112379  0.25000000  0.49986037  1
  Li  Li45  1  0.86887621  0.75000000  0.99986037  1
  Li  Li46  1  0.36887621  0.75000000  0.50013963  1
  Li  Li47  1  0.13112379  0.25000000  0.00013963  1
