# generated using pymatgen
data_LiF
_symmetry_space_group_name_H-M   'P 1'
_cell_length_a   7.89556517
_cell_length_b   7.89556517
_cell_length_c   7.91039198
_cell_angle_alpha   90.00000000
_cell_angle_beta   90.00000000
_cell_angle_gamma   120.00000000
_symmetry_Int_Tables_number   1
_chemical_formula_structural   LiF
_chemical_formula_sum   'Li16 F16'
_cell_volume   427.06608282
_cell_formula_units_Z   16
loop_
 _symmetry_equiv_pos_site_id
 _symmetry_equiv_pos_as_xyz
  1  'x, y, z'
loop_
 _atom_site_type_symbol
 _atom_site_label
 _atom_site_symmetry_multiplicity
 _atom_site_fract_x
 _atom_site_fract_y
 _atom_site_fract_z
 _atom_site_occupancy
  F  F0  1  0.77468318  0.22531682  0.50000000  1
  F  F1  1  0.77468318  0.54936636  0.50000000  1
  F  F2  1  0.45063364  0.22531682  0.50000000  1
  F  F3  1  0.30251261  0.37246392  0.80400481  1
  F  F4  1  0.62753608  0.93004869  0.80400481  1
  F  F5  1  0.06995131  0.69748739  0.80400481  1
  F  F6  1  0.62753608  0.69748739  0.19599519  1
  F  F7  1  0.06995131  0.37246392  0.19599519  1
  F  F8  1  0.30251261  0.93004869  0.19599519  1
  F  F9  1  0.78192376  0.17081539  0.40418433  1
  F  F10  1  0.82918461  0.61110838  0.40418433  1
  F  F11  1  0.38889162  0.21807624  0.40418433  1
  F  F12  1  0.82918461  0.21807624  0.59581567  1
  F  F13  1  0.38889162  0.17081539  0.59581567  1
  F  F14  1  0.78192376  0.61110838  0.59581567  1
  F  F15  1  0.33333333  0.66666667  0.50000000  1
  Li  Li16  1  0.36044137  0.37657437  0.19336076  1
  Li  Li17  1  -0.37657437  -0.01613301  0.19336076  1
  Li  Li18  1  0.01613301  -0.36044137  0.19336076  1
  Li  Li19  1  -0.37657437  -0.36044137  -0.19336076  1
  Li  Li20  1  0.01613301  0.37657437  -0.19336076  1
  Li  Li21  1  0.36044137  -0.01613301  -0.19336076  1
  Li  Li22  1  0.66666667  0.33333333  0.50000000  1
  Li  Li23  1  0.93764743  0.10123433  0.68006427  1
  Li  Li24  1  0.89876567  0.83641310  0.68006427  1
  Li  Li25  1  0.16358690  0.06235257  0.68006427  1
  Li  Li26  1  0.89876567  0.06235257  0.31993573  1
  Li  Li27  1  0.16358690  0.10123433  0.31993573  1
  Li  Li28  1  0.93764743  0.83641310  0.31993573  1
  Li  Li29  1  0.33333333  0.66666667  0.91456982  1
  Li  Li30  1  0.33333333  0.66666667  0.08543018  1
  Li  Li31  1  0.00000000  0.00000000  0.50000000  1
