# generated using pymatgen
data_Li3Y2P3Se2
_symmetry_space_group_name_H-M   'P 1'
_cell_length_a   5.45737697
_cell_length_b   5.68720375
_cell_length_c   7.25985910
_cell_angle_alpha   93.88475523
_cell_angle_beta   98.46018927
_cell_angle_gamma   105.60351780
_symmetry_Int_Tables_number   1
_chemical_formula_structural   Li3Y2P3Se2
_chemical_formula_sum   'Li3 Y2 P3 Se2'
_cell_volume   213.29360893
_cell_formula_units_Z   1
loop_
 _symmetry_equiv_pos_site_id
 _symmetry_equiv_pos_as_xyz
  1  'x, y, z'
loop_
 _atom_site_type_symbol
 _atom_site_label
 _atom_site_symmetry_multiplicity
 _atom_site_fract_x
 _atom_site_fract_y
 _atom_site_fract_z
 _atom_site_occupancy
  Se  Se0  1  0.00000000  0.00000000  0.00000000  1
  Se  Se1  1  0.50000000  0.50000000  0.50000000  1
  P  P2  1  0.25000000  0.25000000  0.25000000  1
  P  P3  1  0.75000000  0.25000000  0.00000000  1
  P  P4  1  0.25000000  0.75000000  0.50000000  1
  Li  Li5  1  0.96514042  0.51558934  0.82560281  1
  Li  Li6  1  0.20774557  0.38922629  0.70226955  1
  Li  Li7  1  0.39945160  0.85424658  0.03604472  1
  Y  Y8  1  0.56136702  0.63481249  0.06267661  1
  Y  Y9  1  0.74538317  0.62747255  0.12233024  1
