# generated using pymatgen
data_Li2YMoAsP3
_symmetry_space_group_name_H-M   'P 1'
_cell_length_a   4.67662157
_cell_length_b   4.88281213
_cell_length_c   7.08222889
_cell_angle_alpha   95.88958225
_cell_angle_beta   102.47894718
_cell_angle_gamma   111.96815835
_symmetry_Int_Tables_number   1
_chemical_formula_structural   Li2YMoAsP3
_chemical_formula_sum   'Li2 Y1 Mo1 As1 P3'
_cell_volume   143.40080726
_cell_formula_units_Z   1
loop_
 _symmetry_equiv_pos_site_id
 _symmetry_equiv_pos_as_xyz
  1  'x, y, z'
loop_
 _atom_site_type_symbol
 _atom_site_label
 _atom_site_symmetry_multiplicity
 _atom_site_fract_x
 _atom_site_fract_y
 _atom_site_fract_z
 _atom_site_occupancy
  P  P0  1  0.00000000  0.00000000  0.00000000  1
  P  P1  1  0.50000000  0.50000000  0.50000000  1
  P  P2  1  0.25000000  0.25000000  0.25000000  1
  Mo  Mo3  1  0.75000000  0.25000000  0.00000000  1
  As  As4  1  0.25000000  0.75000000  0.50000000  1
  Li  Li5  1  0.17246755  0.38707760  0.73472848  1
  Li  Li6  1  0.29750059  0.33720576  0.66682858  1
  Y  Y7  1  0.53709267  0.58605609  0.18770459  1
