# generated using pymatgen
data_LiF
_symmetry_space_group_name_H-M   'P 1'
_cell_length_a   9.32562354
_cell_length_b   9.32562354
_cell_length_c   22.67241761
_cell_angle_alpha   90.00000000
_cell_angle_beta   90.00000000
_cell_angle_gamma   120.00000000
_symmetry_Int_Tables_number   1
_chemical_formula_structural   LiF
_chemical_formula_sum   'Li46 F46'
_cell_volume   1707.59243936
_cell_formula_units_Z   46
loop_
 _symmetry_equiv_pos_site_id
 _symmetry_equiv_pos_as_xyz
  1  'x, y, z'
loop_
 _atom_site_type_symbol
 _atom_site_label
 _atom_site_symmetry_multiplicity
 _atom_site_fract_x
 _atom_site_fract_y
 _atom_site_fract_z
 _atom_site_occupancy
  F  F0  1  0.75567190  0.35779061  0.92947539  1
  F  F1  1  0.64220939  0.39788129  0.92947539  1
  F  F2  1  0.60211871  0.24432810  0.92947539  1
  F  F3  1  0.64220939  0.24432810  0.07052461  1
  F  F4  1  0.60211871  0.35779061  0.07052461  1
  F  F5  1  0.75567190  0.39788129  0.07052461  1
  F  F6  1  0.33333333  0.66666667  0.50000000  1
  F  F7  1  0.30542928  0.74079673  0.05421657  1
  F  F8  1  0.25920327  0.56463254  0.05421657  1
  F  F9  1  0.43536746  0.69457072  0.05421657  1
  F  F10  1  0.25920327  0.69457072  0.94578343  1
  F  F11  1  0.43536746  0.74079673  0.94578343  1
  F  F12  1  0.30542928  0.56463254  0.94578343  1
  F  F13  1  0.16490331  0.97296655  0.42352984  1
  F  F14  1  0.02703345  0.19193676  0.42352984  1
  F  F15  1  0.80806324  0.83509669  0.42352984  1
  F  F16  1  0.02703345  0.83509669  0.57647016  1
  F  F17  1  0.80806324  0.97296655  0.57647016  1
  F  F18  1  0.16490331  0.19193676  0.57647016  1
  F  F19  1  0.33333333  0.66666667  0.64568495  1
  F  F20  1  0.33333333  0.66666667  0.35431505  1
  F  F21  1  0.23977303  0.57469959  0.17046258  1
  F  F22  1  0.42530041  0.66507343  0.17046258  1
  F  F23  1  0.33492657  0.76022697  0.17046258  1
  F  F24  1  0.42530041  0.76022697  0.82953742  1
  F  F25  1  0.33492657  0.57469959  0.82953742  1
  F  F26  1  0.23977303  0.66507343  0.82953742  1
  F  F27  1  0.00000000  0.00000000  0.59456273  1
  F  F28  1  0.00000000  0.00000000  0.40543727  1
  F  F29  1  0.46456831  0.69196361  0.12472125  1
  F  F30  1  0.30803639  0.77260471  0.12472125  1
  F  F31  1  0.22739529  0.53543169  0.12472125  1
  F  F32  1  0.30803639  0.53543169  0.87527875  1
  F  F33  1  0.22739529  0.69196361  0.87527875  1
  F  F34  1  0.46456831  0.77260471  0.87527875  1
  F  F35  1  0.55679863  0.91369939  0.62259801  1
  F  F36  1  0.08630061  0.64309924  0.62259801  1
  F  F37  1  0.35690076  0.44320137  0.62259801  1
  F  F38  1  0.08630061  0.44320137  0.37740199  1
  F  F39  1  0.35690076  0.91369939  0.37740199  1
  F  F40  1  0.55679863  0.64309924  0.37740199  1
  F  F41  1  0.93277505  0.06722495  0.50000000  1
  F  F42  1  0.93277505  0.86555011  0.50000000  1
  F  F43  1  0.13444989  0.06722495  0.50000000  1
  F  F44  1  0.00000000  0.00000000  0.44308250  1
  F  F45  1  0.00000000  0.00000000  0.55691750  1
  Li  Li46  1  0.65988964  0.89181148  0.39781990  1
  Li  Li47  1  -0.89181148  -0.23192184  0.39781990  1
  Li  Li48  1  0.23192184  -0.65988964  0.39781990  1
  Li  Li49  1  -0.89181148  -0.65988964  -0.39781990  1
  Li  Li50  1  0.23192184  0.89181148  -0.39781990  1
  Li  Li51  1  0.65988964  -0.23192184  -0.39781990  1
  Li  Li52  1  0.63389112  0.10548369  0.79231187  1
  Li  Li53  1  0.89451631  0.52840743  0.79231187  1
  Li  Li54  1  0.47159257  0.36610888  0.79231187  1
  Li  Li55  1  0.89451631  0.36610888  0.20768813  1
  Li  Li56  1  0.47159257  0.10548369  0.20768813  1
  Li  Li57  1  0.63389112  0.52840743  0.20768813  1
  Li  Li58  1  0.66666667  0.33333333  0.71122121  1
  Li  Li59  1  0.66666667  0.33333333  0.28877879  1
  Li  Li60  1  0.66666667  0.33333333  0.50000000  1
  Li  Li61  1  0.33333333  0.66666667  0.40162314  1
  Li  Li62  1  0.33333333  0.66666667  0.59837686  1
  Li  Li63  1  0.37796636  0.23356698  0.41770627  1
  Li  Li64  1  0.76643302  0.14439938  0.41770627  1
  Li  Li65  1  0.85560062  0.62203364  0.41770627  1
  Li  Li66  1  0.76643302  0.62203364  0.58229373  1
  Li  Li67  1  0.85560062  0.23356698  0.58229373  1
  Li  Li68  1  0.37796636  0.14439938  0.58229373  1
  Li  Li69  1  0.00000000  0.00000000  0.00000000  1
  Li  Li70  1  0.01069853  0.52595656  0.86810247  1
  Li  Li71  1  0.47404344  0.48474197  0.86810247  1
  Li  Li72  1  0.51525803  0.98930147  0.86810247  1
  Li  Li73  1  0.47404344  0.98930147  0.13189753  1
  Li  Li74  1  0.51525803  0.52595656  0.13189753  1
  Li  Li75  1  0.01069853  0.48474197  0.13189753  1
  Li  Li76  1  0.00000000  0.00000000  0.50000000  1
  Li  Li77  1  0.11175860  0.42857755  0.51432447  1
  Li  Li78  1  0.57142245  0.68318105  0.51432447  1
  Li  Li79  1  0.31681895  0.88824140  0.51432447  1
  Li  Li80  1  0.57142245  0.88824140  0.48567553  1
  Li  Li81  1  0.31681895  0.42857755  0.48567553  1
  Li  Li82  1  0.11175860  0.68318105  0.48567553  1
  Li  Li83  1  0.66666667  0.33333333  0.85650802  1
  Li  Li84  1  0.66666667  0.33333333  0.14349198  1
  Li  Li85  1  0.38403541  0.79585285  0.72607970  1
  Li  Li86  1  0.20414715  0.58818255  0.72607970  1
  Li  Li87  1  0.41181745  0.61596459  0.72607970  1
  Li  Li88  1  0.20414715  0.61596459  0.27392030  1
  Li  Li89  1  0.41181745  0.79585285  0.27392030  1
  Li  Li90  1  0.38403541  0.58818255  0.27392030  1
  Li  Li91  1  0.33333333  0.66666667  0.00000000  1
