# generated using pymatgen
data_LiF
_symmetry_space_group_name_H-M   'P 1'
_cell_length_a   9.29481183
_cell_length_b   9.29481183
_cell_length_c   18.17358955
_cell_angle_alpha   90.00000000
_cell_angle_beta   90.00000000
_cell_angle_gamma   120.00000000
_symmetry_Int_Tables_number   1
_chemical_formula_structural   LiF
_chemical_formula_sum   'Li36 F36'
_cell_volume   1359.72959738
_cell_formula_units_Z   36
loop_
 _symmetry_equiv_pos_site_id
 _symmetry_equiv_pos_as_xyz
  1  'x, y, z'
loop_
 _atom_site_type_symbol
 _atom_site_label
 _atom_site_symmetry_multiplicity
 _atom_site_fract_x
 _atom_site_fract_y
 _atom_site_fract_z
 _atom_site_occupancy
  F  F0  1  0.75154588  0.24901740  0.56205098  1
  F  F1  1  -0.24901740  0.50252848  0.56205098  1
  F  F2  1  -0.50252848  -0.75154588  0.56205098  1
  F  F3  1  0.24901740  0.75154588  -0.06205098  1
  F  F4  1  0.50252848  -0.24901740  -0.06205098  1
  F  F5  1  -0.75154588  -0.50252848  -0.06205098  1
  F  F6  1  -0.75154588  -0.24901740  -0.56205098  1
  F  F7  1  0.24901740  -0.50252848  -0.56205098  1
  F  F8  1  0.50252848  0.75154588  -0.56205098  1
  F  F9  1  -0.24901740  -0.75154588  1.06205098  1
  F  F10  1  -0.50252848  0.24901740  1.06205098  1
  F  F11  1  0.75154588  0.50252848  1.06205098  1
  F  F12  1  1.41821255  0.58235074  0.89538431  1
  F  F13  1  0.41764926  0.83586181  0.89538431  1
  F  F14  1  0.16413819  -0.41821255  0.89538431  1
  F  F15  1  0.91568407  1.08487921  0.27128236  1
  F  F16  1  1.16919514  0.08431593  0.27128236  1
  F  F17  1  -0.08487921  -0.16919514  0.27128236  1
  F  F18  1  -0.08487921  0.08431593  -0.22871764  1
  F  F19  1  0.91568407  -0.16919514  -0.22871764  1
  F  F20  1  1.16919514  1.08487921  -0.22871764  1
  F  F21  1  0.41764926  -0.41821255  1.39538431  1
  F  F22  1  0.16413819  0.58235074  1.39538431  1
  F  F23  1  1.41821255  0.83586181  1.39538431  1
  F  F24  1  1.08487921  0.91568407  1.22871764  1
  F  F25  1  0.08431593  1.16919514  1.22871764  1
  F  F26  1  -0.16919514  -0.08487921  1.22871764  1
  F  F27  1  0.58235074  1.41821255  0.60461569  1
  F  F28  1  0.83586181  0.41764926  0.60461569  1
  F  F29  1  -0.41821255  0.16413819  0.60461569  1
  F  F30  1  -0.41821255  0.41764926  0.10461569  1
  F  F31  1  0.58235074  0.16413819  0.10461569  1
  F  F32  1  0.83586181  1.41821255  0.10461569  1
  F  F33  1  0.08431593  -0.08487921  1.72871764  1
  F  F34  1  -0.16919514  0.91568407  1.72871764  1
  F  F35  1  1.08487921  1.16919514  1.72871764  1
  Li  Li36  1  0.92820825  0.18550758  0.59224108  1
  Li  Li37  1  0.81449242  0.74270066  0.59224108  1
  Li  Li38  1  0.25729934  0.07179175  0.59224108  1
  Li  Li39  1  0.18550758  0.92820825  0.90775892  1
  Li  Li40  1  0.74270066  0.81449242  0.90775892  1
  Li  Li41  1  0.07179175  0.25729934  0.90775892  1
  Li  Li42  1  0.07179175  0.81449242  0.40775892  1
  Li  Li43  1  0.18550758  0.25729934  0.40775892  1
  Li  Li44  1  0.74270066  0.92820825  0.40775892  1
  Li  Li45  1  0.81449242  0.07179175  0.09224108  1
  Li  Li46  1  0.25729934  0.18550758  0.09224108  1
  Li  Li47  1  0.92820825  0.74270066  0.09224108  1
  Li  Li48  1  0.59487492  0.51884092  0.92557441  1
  Li  Li49  1  0.48115908  0.07603400  0.92557441  1
  Li  Li50  1  0.92396600  0.40512508  0.92557441  1
  Li  Li51  1  0.85217425  0.26154158  0.24109225  1
  Li  Li52  1  0.40936733  0.14782575  0.24109225  1
  Li  Li53  1  0.73845842  0.59063267  0.24109225  1
  Li  Li54  1  0.73845842  0.14782575  0.74109225  1
  Li  Li55  1  0.85217425  0.59063267  0.74109225  1
  Li  Li56  1  0.40936733  0.26154158  0.74109225  1
  Li  Li57  1  0.48115908  0.40512508  0.42557441  1
  Li  Li58  1  0.92396600  0.51884092  0.42557441  1
  Li  Li59  1  0.59487492  0.07603400  0.42557441  1
  Li  Li60  1  0.26154158  0.85217425  0.25890775  1
  Li  Li61  1  0.14782575  0.40936733  0.25890775  1
  Li  Li62  1  0.59063267  0.73845842  0.25890775  1
  Li  Li63  1  0.51884092  0.59487492  0.57442559  1
  Li  Li64  1  0.07603400  0.48115908  0.57442559  1
  Li  Li65  1  0.40512508  0.92396600  0.57442559  1
  Li  Li66  1  0.40512508  0.48115908  0.07442559  1
  Li  Li67  1  0.51884092  0.92396600  0.07442559  1
  Li  Li68  1  0.07603400  0.59487492  0.07442559  1
  Li  Li69  1  0.14782575  0.73845842  0.75890775  1
  Li  Li70  1  0.59063267  0.85217425  0.75890775  1
  Li  Li71  1  0.26154158  0.40936733  0.75890775  1
