# generated using pymatgen
data_Li2Y(P2Pb)2
_symmetry_space_group_name_H-M   'P 1'
_cell_length_a   5.67769784
_cell_length_b   5.88207823
_cell_length_c   7.50503269
_cell_angle_alpha   94.29274441
_cell_angle_beta   98.86408398
_cell_angle_gamma   104.88714766
_symmetry_Int_Tables_number   1
_chemical_formula_structural   Li2Y(P2Pb)2
_chemical_formula_sum   'Li2 Y1 P4 Pb2'
_cell_volume   237.61180724
_cell_formula_units_Z   1
loop_
 _symmetry_equiv_pos_site_id
 _symmetry_equiv_pos_as_xyz
  1  'x, y, z'
loop_
 _atom_site_type_symbol
 _atom_site_label
 _atom_site_symmetry_multiplicity
 _atom_site_fract_x
 _atom_site_fract_y
 _atom_site_fract_z
 _atom_site_occupancy
  Pb  Pb0  1  0.12500000  0.12500000  0.12500000  1
  Pb  Pb1  1  0.50000000  0.50000000  0.50000000  1
  Y  Y2  1  0.25000000  0.25000000  0.25000000  1
  P  P3  1  0.75000000  0.75000000  0.75000000  1
  P  P4  1  0.21788464  0.13145381  0.58107949  1
  P  P5  1  0.68954102  0.30057496  0.64911791  1
  P  P6  1  0.29632442  0.95741861  0.11461672  1
  Li  Li7  1  0.37675055  0.90243020  0.47168880  1
  Li  Li8  1  0.10424822  0.96061299  0.57397722  1
