# generated using pymatgen
data_LiF
_symmetry_space_group_name_H-M   'P 1'
_cell_length_a   5.54982812
_cell_length_b   16.83210617
_cell_length_c   6.65295868
_cell_angle_alpha   90.00000000
_cell_angle_beta   90.00000000
_cell_angle_gamma   90.00000000
_symmetry_Int_Tables_number   1
_chemical_formula_structural   LiF
_chemical_formula_sum   'Li24 F24'
_cell_volume   621.48810540
_cell_formula_units_Z   24
loop_
 _symmetry_equiv_pos_site_id
 _symmetry_equiv_pos_as_xyz
  1  'x, y, z'
loop_
 _atom_site_type_symbol
 _atom_site_label
 _atom_site_symmetry_multiplicity
 _atom_site_fract_x
 _atom_site_fract_y
 _atom_site_fract_z
 _atom_site_occupancy
  F  F0  1  0.00000000  0.00000000  0.90705023  1
  F  F1  1  0.50000000  0.50000000  0.09294977  1
  F  F2  1  0.00000000  0.00000000  0.09294977  1
  F  F3  1  0.50000000  0.50000000  0.90705023  1
  F  F4  1  0.19060571  0.20417888  0.63822581  1
  F  F5  1  0.80939429  0.79582112  0.63822581  1
  F  F6  1  0.30939429  0.70417888  0.36177419  1
  F  F7  1  0.69060571  0.29582112  0.36177419  1
  F  F8  1  0.80939429  0.79582112  0.36177419  1
  F  F9  1  0.19060571  0.20417888  0.36177419  1
  F  F10  1  0.69060571  0.29582112  0.63822581  1
  F  F11  1  0.30939429  0.70417888  0.63822581  1
  F  F12  1  0.45208830  0.81782403  0.50000000  1
  F  F13  1  0.54791170  0.18217597  0.50000000  1
  F  F14  1  0.04791170  0.31782403  0.50000000  1
  F  F15  1  0.95208830  0.68217597  0.50000000  1
  F  F16  1  0.33713054  0.46965579  0.18521939  1
  F  F17  1  0.66286946  0.53034421  0.18521939  1
  F  F18  1  0.16286946  0.96965579  0.81478061  1
  F  F19  1  0.83713054  0.03034421  0.81478061  1
  F  F20  1  0.66286946  0.53034421  0.81478061  1
  F  F21  1  0.33713054  0.46965579  0.81478061  1
  F  F22  1  0.83713054  0.03034421  0.18521939  1
  F  F23  1  0.16286946  0.96965579  0.18521939  1
  Li  Li24  1  0.71177074  0.65930909  0.24920839  1
  Li  Li25  1  -0.71177074  -0.65930909  0.24920839  1
  Li  Li26  1  -0.21177074  1.15930909  -0.24920839  1
  Li  Li27  1  1.21177074  -0.15930909  -0.24920839  1
  Li  Li28  1  -0.71177074  -0.65930909  -0.24920839  1
  Li  Li29  1  0.71177074  0.65930909  -0.24920839  1
  Li  Li30  1  1.21177074  -0.15930909  0.24920839  1
  Li  Li31  1  -0.21177074  1.15930909  0.24920839  1
  Li  Li32  1  0.73341946  0.49336946  0.50000000  1
  Li  Li33  1  0.26658054  0.50663054  0.50000000  1
  Li  Li34  1  0.76658054  0.99336946  0.50000000  1
  Li  Li35  1  0.23341946  0.00663054  0.50000000  1
  Li  Li36  1  0.00000000  0.50000000  0.50000000  1
  Li  Li37  1  0.50000000  0.00000000  0.50000000  1
  Li  Li38  1  0.00000000  0.50000000  0.00000000  1
  Li  Li39  1  0.50000000  0.00000000  0.00000000  1
  Li  Li40  1  0.63835791  0.65379576  0.00000000  1
  Li  Li41  1  0.36164209  0.34620424  0.00000000  1
  Li  Li42  1  0.86164209  0.15379576  0.00000000  1
  Li  Li43  1  0.13835791  0.84620424  0.00000000  1
  Li  Li44  1  0.00000000  0.00000000  0.63035007  1
  Li  Li45  1  0.50000000  0.50000000  0.36964993  1
  Li  Li46  1  0.00000000  0.00000000  0.36964993  1
  Li  Li47  1  0.50000000  0.50000000  0.63035007  1
