# generated using pymatgen
data_LiF
_symmetry_space_group_name_H-M   'P 1'
_cell_length_a   10.80801656
_cell_length_b   5.16079144
_cell_length_c   8.53257393
_cell_angle_alpha   90.00000000
_cell_angle_beta   90.00000000
_cell_angle_gamma   90.00000000
_symmetry_Int_Tables_number   1
_chemical_formula_structural   LiF
_chemical_formula_sum   'Li14 F14'
_cell_volume   475.92922093
_cell_formula_units_Z   14
loop_
 _symmetry_equiv_pos_site_id
 _symmetry_equiv_pos_as_xyz
  1  'x, y, z'
loop_
 _atom_site_type_symbol
 _atom_site_label
 _atom_site_symmetry_multiplicity
 _atom_site_fract_x
 _atom_site_fract_y
 _atom_site_fract_z
 _atom_site_occupancy
  F  F0  1  0.00000000  0.00000000  0.00000000  1
  F  F1  1  0.50000000  0.50000000  0.00000000  1
  F  F2  1  0.86973571  0.72385902  0.25643550  1
  F  F3  1  -0.86973571  -0.72385902  0.25643550  1
  F  F4  1  -0.36973571  1.22385902  -0.25643550  1
  F  F5  1  1.36973571  -0.22385902  -0.25643550  1
  F  F6  1  -0.86973571  -0.72385902  -0.25643550  1
  F  F7  1  0.86973571  0.72385902  -0.25643550  1
  F  F8  1  1.36973571  -0.22385902  0.25643550  1
  F  F9  1  -0.36973571  1.22385902  0.25643550  1
  F  F10  1  0.21047122  0.14112569  0.50000000  1
  F  F11  1  0.78952878  0.85887431  0.50000000  1
  F  F12  1  0.28952878  0.64112569  0.50000000  1
  F  F13  1  0.71047122  0.35887431  0.50000000  1
  Li  Li14  1  0.00000000  0.00000000  0.50000000  1
  Li  Li15  1  0.50000000  0.50000000  0.50000000  1
  Li  Li16  1  0.00000000  0.50000000  0.50000000  1
  Li  Li17  1  0.50000000  0.00000000  0.50000000  1
  Li  Li18  1  0.25853073  0.16198765  0.24286675  1
  Li  Li19  1  0.74146927  0.83801235  0.24286675  1
  Li  Li20  1  0.24146927  0.66198765  0.75713325  1
  Li  Li21  1  0.75853073  0.33801235  0.75713325  1
  Li  Li22  1  0.74146927  0.83801235  0.75713325  1
  Li  Li23  1  0.25853073  0.16198765  0.75713325  1
  Li  Li24  1  0.75853073  0.33801235  0.24286675  1
  Li  Li25  1  0.24146927  0.66198765  0.24286675  1
  Li  Li26  1  0.00000000  0.50000000  0.00000000  1
  Li  Li27  1  0.50000000  0.00000000  0.00000000  1
