# generated using pymatgen
data_LiF
_symmetry_space_group_name_H-M   'P 1'
_cell_length_a   6.48838664
_cell_length_b   6.54666859
_cell_length_c   11.86419934
_cell_angle_alpha   90.00000000
_cell_angle_beta   90.00000000
_cell_angle_gamma   90.00000000
_symmetry_Int_Tables_number   1
_chemical_formula_structural   LiF
_chemical_formula_sum   'Li26 F26'
_cell_volume   503.95935622
_cell_formula_units_Z   26
loop_
 _symmetry_equiv_pos_site_id
 _symmetry_equiv_pos_as_xyz
  1  'x, y, z'
loop_
 _atom_site_type_symbol
 _atom_site_label
 _atom_site_symmetry_multiplicity
 _atom_site_fract_x
 _atom_site_fract_y
 _atom_site_fract_z
 _atom_site_occupancy
  F  F0  1  0.18963529  0.35216874  0.50000000  1
  F  F1  1  0.81036471  0.64783126  0.50000000  1
  F  F2  1  0.31036471  0.85216874  0.50000000  1
  F  F3  1  0.68963529  0.14783126  0.50000000  1
  F  F4  1  0.66931243  0.95376875  0.47305262  1
  F  F5  1  -0.66931243  -0.95376875  0.47305262  1
  F  F6  1  -0.16931243  1.45376875  -0.47305262  1
  F  F7  1  1.16931243  -0.45376875  -0.47305262  1
  F  F8  1  -0.66931243  -0.95376875  -0.47305262  1
  F  F9  1  0.66931243  0.95376875  -0.47305262  1
  F  F10  1  1.16931243  -0.45376875  0.47305262  1
  F  F11  1  -0.16931243  1.45376875  0.47305262  1
  F  F12  1  0.29958416  0.55727087  0.50000000  1
  F  F13  1  0.70041584  0.44272913  0.50000000  1
  F  F14  1  0.20041584  0.05727087  0.50000000  1
  F  F15  1  0.79958416  0.94272913  0.50000000  1
  F  F16  1  0.59333482  0.62345975  0.08726254  1
  F  F17  1  0.40666518  0.37654025  0.08726254  1
  F  F18  1  0.90666518  0.12345975  0.91273746  1
  F  F19  1  0.09333482  0.87654025  0.91273746  1
  F  F20  1  0.40666518  0.37654025  0.91273746  1
  F  F21  1  0.59333482  0.62345975  0.91273746  1
  F  F22  1  0.09333482  0.87654025  0.08726254  1
  F  F23  1  0.90666518  0.12345975  0.08726254  1
  F  F24  1  0.00000000  0.00000000  0.00000000  1
  F  F25  1  0.50000000  0.50000000  0.00000000  1
  Li  Li26  1  0.61424098  0.81056787  0.25506944  1
  Li  Li27  1  0.38575902  0.18943213  0.25506944  1
  Li  Li28  1  0.88575902  0.31056787  0.74493056  1
  Li  Li29  1  0.11424098  0.68943213  0.74493056  1
  Li  Li30  1  0.38575902  0.18943213  0.74493056  1
  Li  Li31  1  0.61424098  0.81056787  0.74493056  1
  Li  Li32  1  0.11424098  0.68943213  0.25506944  1
  Li  Li33  1  0.88575902  0.31056787  0.25506944  1
  Li  Li34  1  0.00000000  0.00000000  0.31674589  1
  Li  Li35  1  0.50000000  0.50000000  0.68325411  1
  Li  Li36  1  0.00000000  0.00000000  0.68325411  1
  Li  Li37  1  0.50000000  0.50000000  0.31674589  1
  Li  Li38  1  0.12313043  0.19161855  0.74471814  1
  Li  Li39  1  0.87686957  0.80838145  0.74471814  1
  Li  Li40  1  0.37686957  0.69161855  0.25528186  1
  Li  Li41  1  0.62313043  0.30838145  0.25528186  1
  Li  Li42  1  0.87686957  0.80838145  0.25528186  1
  Li  Li43  1  0.12313043  0.19161855  0.25528186  1
  Li  Li44  1  0.62313043  0.30838145  0.74471814  1
  Li  Li45  1  0.37686957  0.69161855  0.74471814  1
  Li  Li46  1  0.00000000  0.50000000  0.00000000  1
  Li  Li47  1  0.50000000  -0.00000000  0.00000000  1
  Li  Li48  1  0.00000000  0.00000000  0.15054356  1
  Li  Li49  1  0.50000000  0.50000000  0.84945644  1
  Li  Li50  1  0.00000000  0.00000000  0.84945644  1
  Li  Li51  1  0.50000000  0.50000000  0.15054356  1
