# generated using pymatgen
data_Li4TeF2
_symmetry_space_group_name_H-M   'P 1'
_cell_length_a   9.99341273
_cell_length_b   9.99341273
_cell_length_c   27.83795838
_cell_angle_alpha   90.00000000
_cell_angle_beta   90.00000000
_cell_angle_gamma   90.00000000
_symmetry_Int_Tables_number   1
_chemical_formula_structural   Li4TeF2
_chemical_formula_sum   'Li96 Te24 F48'
_cell_volume   2780.12952067
_cell_formula_units_Z   24
loop_
 _symmetry_equiv_pos_site_id
 _symmetry_equiv_pos_as_xyz
  1  'x, y, z'
loop_
 _atom_site_type_symbol
 _atom_site_label
 _atom_site_symmetry_multiplicity
 _atom_site_fract_x
 _atom_site_fract_y
 _atom_site_fract_z
 _atom_site_occupancy
  F  F0  1  0.37766062  0.31792310  0.31711183  1
  F  F1  1  0.12233938  -0.31792310  0.81711183  1
  F  F2  1  -0.06792310  1.12766062  0.56711183  1
  F  F3  1  0.56792310  -0.12766062  1.06711183  1
  F  F4  1  0.12233938  0.31792310  -0.31711183  1
  F  F5  1  0.37766062  -0.31792310  0.18288817  1
  F  F6  1  0.56792310  1.12766062  0.43288817  1
  F  F7  1  -0.06792310  -0.12766062  -0.06711183  1
  F  F8  1  -0.37766062  -0.31792310  -0.31711183  1
  F  F9  1  0.87766062  0.31792310  0.18288817  1
  F  F10  1  1.06792310  -0.12766062  0.43288817  1
  F  F11  1  0.43207690  1.12766062  -0.06711183  1
  F  F12  1  0.87766062  -0.31792310  0.31711183  1
  F  F13  1  -0.37766062  0.31792310  0.81711183  1
  F  F14  1  0.43207690  -0.12766062  0.56711183  1
  F  F15  1  1.06792310  1.12766062  1.06711183  1
  F  F16  1  0.87766062  0.81792310  0.81711183  1
  F  F17  1  0.62233938  0.18207690  1.31711183  1
  F  F18  1  0.43207690  1.62766062  1.06711183  1
  F  F19  1  1.06792310  0.37233938  1.56711183  1
  F  F20  1  0.62233938  0.81792310  0.18288817  1
  F  F21  1  0.87766062  0.18207690  0.68288817  1
  F  F22  1  1.06792310  1.62766062  0.93288817  1
  F  F23  1  0.43207690  0.37233938  0.43288817  1
  F  F24  1  0.12233938  0.18207690  0.18288817  1
  F  F25  1  1.37766062  0.81792310  0.68288817  1
  F  F26  1  1.56792310  0.37233938  0.93288817  1
  F  F27  1  0.93207690  1.62766062  0.43288817  1
  F  F28  1  1.37766062  0.18207690  0.81711183  1
  F  F29  1  0.12233938  0.81792310  1.31711183  1
  F  F30  1  0.93207690  0.37233938  1.06711183  1
  F  F31  1  1.56792310  1.62766062  1.56711183  1
  F  F32  1  0.92195342  0.00000000  0.25000000  1
  F  F33  1  0.57804658  0.00000000  0.75000000  1
  F  F34  1  0.25000000  0.67195342  0.50000000  1
  F  F35  1  0.25000000  0.32804658  -0.00000000  1
  F  F36  1  0.07804658  -0.00000000  0.75000000  1
  F  F37  1  0.42195342  -0.00000000  0.25000000  1
  F  F38  1  0.75000000  0.32804658  0.50000000  1
  F  F39  1  0.75000000  0.67195342  -0.00000000  1
  F  F40  1  0.42195342  0.50000000  0.75000000  1
  F  F41  1  0.07804658  0.50000000  0.25000000  1
  F  F42  1  0.75000000  0.17195342  0.00000000  1
  F  F43  1  0.75000000  0.82804658  0.50000000  1
  F  F44  1  0.57804658  0.50000000  0.25000000  1
  F  F45  1  0.92195342  0.50000000  0.75000000  1
  F  F46  1  0.25000000  0.82804658  0.00000000  1
  F  F47  1  0.25000000  0.17195342  0.50000000  1
  Li  Li48  1  0.55578620  0.48521202  0.54223921  1
  Li  Li49  1  0.94421380  0.51478798  0.04223921  1
  Li  Li50  1  0.76478798  0.30578620  0.79223921  1
  Li  Li51  1  0.73521202  0.69421380  0.29223921  1
  Li  Li52  1  0.94421380  0.48521202  0.45776079  1
  Li  Li53  1  0.55578620  0.51478798  0.95776079  1
  Li  Li54  1  0.73521202  0.30578620  0.20776079  1
  Li  Li55  1  0.76478798  0.69421380  0.70776079  1
  Li  Li56  1  0.44421380  0.51478798  0.45776079  1
  Li  Li57  1  0.05578620  0.48521202  0.95776079  1
  Li  Li58  1  0.23521202  0.69421380  0.20776079  1
  Li  Li59  1  0.26478798  0.30578620  0.70776079  1
  Li  Li60  1  0.05578620  0.51478798  0.54223921  1
  Li  Li61  1  0.44421380  0.48521202  0.04223921  1
  Li  Li62  1  0.26478798  0.69421380  0.79223921  1
  Li  Li63  1  0.23521202  0.30578620  0.29223921  1
  Li  Li64  1  0.05578620  0.98521202  0.04223921  1
  Li  Li65  1  0.44421380  0.01478798  0.54223921  1
  Li  Li66  1  0.26478798  0.80578620  0.29223921  1
  Li  Li67  1  0.23521202  0.19421380  0.79223921  1
  Li  Li68  1  0.44421380  0.98521202  0.95776079  1
  Li  Li69  1  0.05578620  0.01478798  0.45776079  1
  Li  Li70  1  0.23521202  0.80578620  0.70776079  1
  Li  Li71  1  0.26478798  0.19421380  0.20776079  1
  Li  Li72  1  0.94421380  0.01478798  0.95776079  1
  Li  Li73  1  0.55578620  0.98521202  0.45776079  1
  Li  Li74  1  0.73521202  0.19421380  0.70776079  1
  Li  Li75  1  0.76478798  0.80578620  0.20776079  1
  Li  Li76  1  0.55578620  0.01478798  0.04223921  1
  Li  Li77  1  0.94421380  0.98521202  0.54223921  1
  Li  Li78  1  0.76478798  0.19421380  0.29223921  1
  Li  Li79  1  0.73521202  0.80578620  0.79223921  1
  Li  Li80  1  0.87171166  0.09082943  0.86793943  1
  Li  Li81  1  0.62828834  0.90917057  0.36793943  1
  Li  Li82  1  0.15917057  0.62171166  0.11793943  1
  Li  Li83  1  0.34082943  0.37828834  0.61793943  1
  Li  Li84  1  0.62828834  0.09082943  0.13206057  1
  Li  Li85  1  0.87171166  0.90917057  0.63206057  1
  Li  Li86  1  0.34082943  0.62171166  0.88206057  1
  Li  Li87  1  0.15917057  0.37828834  0.38206057  1
  Li  Li88  1  0.12828834  0.90917057  0.13206057  1
  Li  Li89  1  0.37171166  0.09082943  0.63206057  1
  Li  Li90  1  0.84082943  0.37828834  0.88206057  1
  Li  Li91  1  0.65917057  0.62171166  0.38206057  1
  Li  Li92  1  0.37171166  0.90917057  0.86793943  1
  Li  Li93  1  0.12828834  0.09082943  0.36793943  1
  Li  Li94  1  0.65917057  0.37828834  0.11793943  1
  Li  Li95  1  0.84082943  0.62171166  0.61793943  1
  Li  Li96  1  0.37171166  0.59082943  0.36793943  1
  Li  Li97  1  0.12828834  0.40917057  0.86793943  1
  Li  Li98  1  0.65917057  0.12171166  0.61793943  1
  Li  Li99  1  0.84082943  0.87828834  0.11793943  1
  Li  Li100  1  0.12828834  0.59082943  0.63206057  1
  Li  Li101  1  0.37171166  0.40917057  0.13206057  1
  Li  Li102  1  0.84082943  0.12171166  0.38206057  1
  Li  Li103  1  0.65917057  0.87828834  0.88206057  1
  Li  Li104  1  0.62828834  0.40917057  0.63206057  1
  Li  Li105  1  0.87171166  0.59082943  0.13206057  1
  Li  Li106  1  0.34082943  0.87828834  0.38206057  1
  Li  Li107  1  0.15917057  0.12171166  0.88206057  1
  Li  Li108  1  0.87171166  0.40917057  0.36793943  1
  Li  Li109  1  0.62828834  0.59082943  0.86793943  1
  Li  Li110  1  0.15917057  0.87828834  0.61793943  1
  Li  Li111  1  0.34082943  0.12171166  0.11793943  1
  Li  Li112  1  0.28875187  0.00000000  0.25000000  1
  Li  Li113  1  0.21124813  -0.00000000  0.75000000  1
  Li  Li114  1  0.25000000  0.03875187  0.50000000  1
  Li  Li115  1  0.25000000  0.96124813  -0.00000000  1
  Li  Li116  1  0.71124813  -0.00000000  0.75000000  1
  Li  Li117  1  0.78875187  -0.00000000  0.25000000  1
  Li  Li118  1  0.75000000  0.96124813  0.50000000  1
  Li  Li119  1  0.75000000  0.03875187  0.00000000  1
  Li  Li120  1  0.78875187  0.50000000  0.75000000  1
  Li  Li121  1  0.71124813  0.50000000  0.25000000  1
  Li  Li122  1  0.75000000  0.53875187  0.00000000  1
  Li  Li123  1  0.75000000  0.46124813  0.50000000  1
  Li  Li124  1  0.21124813  0.50000000  0.25000000  1
  Li  Li125  1  0.28875187  0.50000000  0.75000000  1
  Li  Li126  1  0.25000000  0.46124813  -0.00000000  1
  Li  Li127  1  0.25000000  0.53875187  0.50000000  1
  Li  Li128  1  0.00000000  0.00000000  0.00000000  1
  Li  Li129  1  0.50000000  0.00000000  0.50000000  1
  Li  Li130  1  0.25000000  0.75000000  0.25000000  1
  Li  Li131  1  0.25000000  0.25000000  0.75000000  1
  Li  Li132  1  0.50000000  0.00000000  -0.00000000  1
  Li  Li133  1  0.00000000  0.00000000  0.50000000  1
  Li  Li134  1  0.25000000  0.75000000  0.75000000  1
  Li  Li135  1  0.25000000  0.25000000  0.25000000  1
  Li  Li136  1  0.50000000  0.50000000  0.50000000  1
  Li  Li137  1  0.00000000  0.50000000  -0.00000000  1
  Li  Li138  1  0.75000000  0.25000000  0.75000000  1
  Li  Li139  1  0.75000000  0.75000000  0.25000000  1
  Li  Li140  1  0.00000000  0.50000000  0.50000000  1
  Li  Li141  1  0.50000000  0.50000000  -0.00000000  1
  Li  Li142  1  0.75000000  0.25000000  0.25000000  1
  Li  Li143  1  0.75000000  0.75000000  0.75000000  1
  Te  Te144  1  0.12665900  0.00000000  0.25000000  1
  Te  Te145  1  0.37334100  -0.00000000  0.75000000  1
  Te  Te146  1  0.25000000  0.87665900  0.50000000  1
  Te  Te147  1  0.25000000  0.12334100  -0.00000000  1
  Te  Te148  1  0.87334100  -0.00000000  0.75000000  1
  Te  Te149  1  0.62665900  -0.00000000  0.25000000  1
  Te  Te150  1  0.75000000  0.12334100  0.50000000  1
  Te  Te151  1  0.75000000  0.87665900  0.00000000  1
  Te  Te152  1  0.62665900  0.50000000  0.75000000  1
  Te  Te153  1  0.87334100  0.50000000  0.25000000  1
  Te  Te154  1  0.75000000  0.37665900  0.00000000  1
  Te  Te155  1  0.75000000  0.62334100  0.50000000  1
  Te  Te156  1  0.37334100  0.50000000  0.25000000  1
  Te  Te157  1  0.12665900  0.50000000  0.75000000  1
  Te  Te158  1  0.25000000  0.62334100  -0.00000000  1
  Te  Te159  1  0.25000000  0.37665900  0.50000000  1
  Te  Te160  1  0.00000000  0.25000000  0.12500000  1
  Te  Te161  1  0.00000000  0.75000000  0.37500000  1
  Te  Te162  1  0.00000000  0.75000000  0.87500000  1
  Te  Te163  1  0.00000000  0.25000000  0.62500000  1
  Te  Te164  1  0.50000000  0.75000000  0.62500000  1
  Te  Te165  1  0.50000000  0.25000000  0.87500000  1
  Te  Te166  1  0.50000000  0.25000000  0.37500000  1
  Te  Te167  1  0.50000000  0.75000000  0.12500000  1
