# generated using pymatgen
data_LiCaF3
_symmetry_space_group_name_H-M   'P 1'
_cell_length_a   13.35988419
_cell_length_b   13.35988419
_cell_length_c   11.41881860
_cell_angle_alpha   90.00000000
_cell_angle_beta   90.00000000
_cell_angle_gamma   120.00000000
_symmetry_Int_Tables_number   1
_chemical_formula_structural   LiCaF3
_chemical_formula_sum   'Li18 Ca18 F54'
_cell_volume   1765.05073129
_cell_formula_units_Z   18
loop_
 _symmetry_equiv_pos_site_id
 _symmetry_equiv_pos_as_xyz
  1  'x, y, z'
loop_
 _atom_site_type_symbol
 _atom_site_label
 _atom_site_symmetry_multiplicity
 _atom_site_fract_x
 _atom_site_fract_y
 _atom_site_fract_z
 _atom_site_occupancy
  Ca  Ca0  1  0.70613869  0.04057813  0.71545464  1
  Ca  Ca1  1  -0.04057813  0.66556056  0.71545464  1
  Ca  Ca2  1  -0.66556056  -0.70613869  0.71545464  1
  Ca  Ca3  1  -0.04057813  -0.70613869  -0.71545464  1
  Ca  Ca4  1  -0.66556056  0.04057813  -0.71545464  1
  Ca  Ca5  1  0.70613869  0.66556056  -0.71545464  1
  Ca  Ca6  1  0.91621911  0.08378089  -0.00000000  1
  Ca  Ca7  1  0.91621911  0.83243822  0.00000000  1
  Ca  Ca8  1  0.16756178  0.08378089  0.00000000  1
  Ca  Ca9  1  0.39339526  0.87654893  0.28039003  1
  Ca  Ca10  1  0.12345107  0.51684633  0.28039003  1
  Ca  Ca11  1  0.48315367  0.60660474  0.28039003  1
  Ca  Ca12  1  0.12345107  0.60660474  0.71960997  1
  Ca  Ca13  1  0.48315367  0.87654893  0.71960997  1
  Ca  Ca14  1  0.39339526  0.51684633  0.71960997  1
  Ca  Ca15  1  0.21587836  0.78412164  0.50000000  1
  Ca  Ca16  1  0.21587836  0.43175671  0.50000000  1
  Ca  Ca17  1  0.56824329  0.78412164  0.50000000  1
  F  F18  1  0.73711439  0.26643665  0.31866075  1
  F  F19  1  0.73356335  0.47067774  0.31866075  1
  F  F20  1  0.52932226  0.26288561  0.31866075  1
  F  F21  1  0.73356335  0.26288561  0.68133925  1
  F  F22  1  0.52932226  0.26643665  0.68133925  1
  F  F23  1  0.73711439  0.47067774  0.68133925  1
  F  F24  1  0.66666667  0.33333333  0.38332423  1
  F  F25  1  0.66666667  0.33333333  0.61667577  1
  F  F26  1  0.49476783  0.50523217  0.50000000  1
  F  F27  1  0.49476783  0.98953567  0.50000000  1
  F  F28  1  0.01046433  0.50523217  0.50000000  1
  F  F29  1  0.55419134  0.44580866  0.00000000  1
  F  F30  1  0.55419134  0.10838268  0.00000000  1
  F  F31  1  0.89161732  0.44580866  -0.00000000  1
  F  F32  1  0.58264592  0.47490988  0.38439849  1
  F  F33  1  0.52509012  0.10773604  0.38439849  1
  F  F34  1  0.89226396  0.41735408  0.38439849  1
  F  F35  1  0.52509012  0.41735408  0.61560151  1
  F  F36  1  0.89226396  0.47490988  0.61560151  1
  F  F37  1  0.58264592  0.10773604  0.61560151  1
  F  F38  1  0.33333333  0.66666667  0.20553128  1
  F  F39  1  0.33333333  0.66666667  0.79446872  1
  F  F40  1  0.60086974  0.32232493  0.59611762  1
  F  F41  1  0.67767507  0.27854481  0.59611762  1
  F  F42  1  0.72145519  0.39913026  0.59611762  1
  F  F43  1  0.67767507  0.39913026  0.40388238  1
  F  F44  1  0.72145519  0.32232493  0.40388238  1
  F  F45  1  0.60086974  0.27854481  0.40388238  1
  F  F46  1  0.84565928  0.46781189  0.86249888  1
  F  F47  1  0.53218811  0.37784739  0.86249888  1
  F  F48  1  0.62215261  0.15434072  0.86249888  1
  F  F49  1  0.53218811  0.15434072  0.13750112  1
  F  F50  1  0.62215261  0.46781189  0.13750112  1
  F  F51  1  0.84565928  0.37784739  0.13750112  1
  F  F52  1  0.29805217  0.29562737  0.49485064  1
  F  F53  1  0.70437263  0.00242480  0.49485064  1
  F  F54  1  0.99757520  0.70194783  0.49485064  1
  F  F55  1  0.70437263  0.70194783  0.50514936  1
  F  F56  1  0.99757520  0.29562737  0.50514936  1
  F  F57  1  0.29805217  0.00242480  0.50514936  1
  F  F58  1  0.00000000  0.00000000  0.00000000  1
  F  F59  1  0.66666667  0.33333333  0.50000000  1
  F  F60  1  0.67754607  0.68594851  0.00030506  1
  F  F61  1  0.31405149  0.99159756  0.00030506  1
  F  F62  1  0.00840244  0.32245393  0.00030506  1
  F  F63  1  0.31405149  0.32245393  0.99969494  1
  F  F64  1  0.00840244  0.68594851  0.99969494  1
  F  F65  1  0.67754607  0.99159756  0.99969494  1
  F  F66  1  0.44895294  0.99871253  0.90347179  1
  F  F67  1  0.00128747  0.45024041  0.90347179  1
  F  F68  1  0.54975959  0.55104706  0.90347179  1
  F  F69  1  0.00128747  0.55104706  0.09652821  1
  F  F70  1  0.54975959  0.99871253  0.09652821  1
  F  F71  1  0.44895294  0.45024041  0.09652821  1
  Li  Li72  1  0.64203833  0.88235635  0.00927083  1
  Li  Li73  1  0.11764365  0.75968198  0.00927083  1
  Li  Li74  1  0.24031802  0.35796167  0.00927083  1
  Li  Li75  1  0.11764365  0.35796167  0.99072917  1
  Li  Li76  1  0.24031802  0.88235635  0.99072917  1
  Li  Li77  1  0.64203833  0.75968198  0.99072917  1
  Li  Li78  1  0.79944562  0.14470766  0.64583914  1
  Li  Li79  1  0.85529234  0.65473796  0.64583914  1
  Li  Li80  1  0.34526204  0.20055438  0.64583914  1
  Li  Li81  1  0.85529234  0.20055438  0.35416086  1
  Li  Li82  1  0.34526204  0.14470766  0.35416086  1
  Li  Li83  1  0.79944562  0.65473796  0.35416086  1
  Li  Li84  1  0.33333333  0.66666667  0.50000000  1
  Li  Li85  1  0.09298297  0.90701703  0.00000000  1
  Li  Li86  1  0.09298297  0.18596594  0.00000000  1
  Li  Li87  1  0.81403406  0.90701703  0.00000000  1
  Li  Li88  1  0.00000000  0.00000000  0.67232221  1
  Li  Li89  1  0.00000000  0.00000000  0.32767779  1
