# generated using pymatgen
data_LiF
_symmetry_space_group_name_H-M   'P 1'
_cell_length_a   8.21101267
_cell_length_b   8.21101267
_cell_length_c   37.06164722
_cell_angle_alpha   90.00000000
_cell_angle_beta   90.00000000
_cell_angle_gamma   120.00000000
_symmetry_Int_Tables_number   1
_chemical_formula_structural   LiF
_chemical_formula_sum   'Li108 F108'
_cell_volume   2163.95783574
_cell_formula_units_Z   108
loop_
 _symmetry_equiv_pos_site_id
 _symmetry_equiv_pos_as_xyz
  1  'x, y, z'
loop_
 _atom_site_type_symbol
 _atom_site_label
 _atom_site_symmetry_multiplicity
 _atom_site_fract_x
 _atom_site_fract_y
 _atom_site_fract_z
 _atom_site_occupancy
  F  F0  1  0.20128916  0.00000000  0.25000000  1
  F  F1  1  0.00000000  0.20128916  0.25000000  1
  F  F2  1  0.79871084  0.79871084  0.25000000  1
  F  F3  1  0.79871084  0.00000000  0.75000000  1
  F  F4  1  0.00000000  0.79871084  0.75000000  1
  F  F5  1  0.20128916  0.20128916  0.75000000  1
  F  F6  1  0.86795583  0.33333333  0.58333333  1
  F  F7  1  0.66666667  0.53462250  0.58333333  1
  F  F8  1  0.46537750  0.13204417  0.58333333  1
  F  F9  1  0.46537750  0.33333333  0.08333333  1
  F  F10  1  0.66666667  0.13204417  0.08333333  1
  F  F11  1  0.86795583  0.53462250  0.08333333  1
  F  F12  1  0.53462250  0.66666667  0.91666667  1
  F  F13  1  0.33333333  0.86795583  0.91666667  1
  F  F14  1  0.13204417  0.46537750  0.91666667  1
  F  F15  1  0.13204417  0.66666667  0.41666667  1
  F  F16  1  0.33333333  0.46537750  0.41666667  1
  F  F17  1  0.53462250  0.86795583  0.41666667  1
  F  F18  1  0.88469576  0.10513896  0.10593693  1
  F  F19  1  0.89486104  0.77955680  0.10593693  1
  F  F20  1  0.22044320  0.11530424  0.10593693  1
  F  F21  1  0.10513896  0.88469576  0.39406307  1
  F  F22  1  0.77955680  0.89486104  0.39406307  1
  F  F23  1  0.11530424  0.22044320  0.39406307  1
  F  F24  1  0.11530424  0.89486104  0.89406307  1
  F  F25  1  0.10513896  0.22044320  0.89406307  1
  F  F26  1  0.77955680  0.88469576  0.89406307  1
  F  F27  1  0.89486104  0.11530424  0.60593693  1
  F  F28  1  0.22044320  0.10513896  0.60593693  1
  F  F29  1  0.88469576  0.77955680  0.60593693  1
  F  F30  1  0.55136243  0.43847229  0.43927027  1
  F  F31  1  0.56152771  0.11289013  0.43927027  1
  F  F32  1  0.88710987  0.44863757  0.43927027  1
  F  F33  1  0.77180563  0.21802909  0.72739640  1
  F  F34  1  0.44622347  0.22819437  0.72739640  1
  F  F35  1  0.78197091  0.55377653  0.72739640  1
  F  F36  1  0.78197091  0.22819437  0.22739640  1
  F  F37  1  0.77180563  0.55377653  0.22739640  1
  F  F38  1  0.44622347  0.21802909  0.22739640  1
  F  F39  1  0.56152771  0.44863757  0.93927027  1
  F  F40  1  0.88710987  0.43847229  0.93927027  1
  F  F41  1  0.55136243  0.11289013  0.93927027  1
  F  F42  1  0.21802909  0.77180563  0.77260360  1
  F  F43  1  0.22819437  0.44622347  0.77260360  1
  F  F44  1  0.55377653  0.78197091  0.77260360  1
  F  F45  1  0.43847229  0.55136243  0.06072973  1
  F  F46  1  0.11289013  0.56152771  0.06072973  1
  F  F47  1  0.44863757  0.88710987  0.06072973  1
  F  F48  1  0.44863757  0.56152771  0.56072973  1
  F  F49  1  0.43847229  0.88710987  0.56072973  1
  F  F50  1  0.11289013  0.55136243  0.56072973  1
  F  F51  1  0.22819437  0.78197091  0.27260360  1
  F  F52  1  0.55377653  0.77180563  0.27260360  1
  F  F53  1  0.21802909  0.44622347  0.27260360  1
  F  F54  1  0.07904443  0.71318500  0.73906007  1
  F  F55  1  0.28681500  0.36585942  0.73906007  1
  F  F56  1  0.63414058  0.92095557  0.73906007  1
  F  F57  1  0.71318500  0.07904443  0.76093993  1
  F  F58  1  0.36585942  0.28681500  0.76093993  1
  F  F59  1  0.92095557  0.63414058  0.76093993  1
  F  F60  1  0.92095557  0.28681500  0.26093993  1
  F  F61  1  0.71318500  0.63414058  0.26093993  1
  F  F62  1  0.36585942  0.07904443  0.26093993  1
  F  F63  1  0.28681500  0.92095557  0.23906007  1
  F  F64  1  0.63414058  0.71318500  0.23906007  1
  F  F65  1  0.07904443  0.36585942  0.23906007  1
  F  F66  1  0.74571110  0.04651834  0.07239340  1
  F  F67  1  0.95348166  0.69919276  0.07239340  1
  F  F68  1  0.30080724  0.25428890  0.07239340  1
  F  F69  1  0.37985167  0.41237776  0.09427326  1
  F  F70  1  0.03252609  0.62014833  0.09427326  1
  F  F71  1  0.58762224  0.96747391  0.09427326  1
  F  F72  1  0.58762224  0.62014833  0.59427326  1
  F  F73  1  0.37985167  0.96747391  0.59427326  1
  F  F74  1  0.03252609  0.41237776  0.59427326  1
  F  F75  1  0.95348166  0.25428890  0.57239340  1
  F  F76  1  0.30080724  0.04651834  0.57239340  1
  F  F77  1  0.74571110  0.69919276  0.57239340  1
  F  F78  1  0.41237776  0.37985167  0.40572674  1
  F  F79  1  0.62014833  0.03252609  0.40572674  1
  F  F80  1  0.96747391  0.58762224  0.40572674  1
  F  F81  1  0.04651834  0.74571110  0.42760660  1
  F  F82  1  0.69919276  0.95348166  0.42760660  1
  F  F83  1  0.25428890  0.30080724  0.42760660  1
  F  F84  1  0.25428890  0.95348166  0.92760660  1
  F  F85  1  0.04651834  0.30080724  0.92760660  1
  F  F86  1  0.69919276  0.74571110  0.92760660  1
  F  F87  1  0.62014833  0.58762224  0.90572674  1
  F  F88  1  0.96747391  0.37985167  0.90572674  1
  F  F89  1  0.41237776  0.03252609  0.90572674  1
  F  F90  1  0.50000000  0.00000000  -0.00000000  1
  F  F91  1  0.00000000  0.50000000  0.00000000  1
  F  F92  1  0.50000000  0.50000000  0.00000000  1
  F  F93  1  0.00000000  0.50000000  0.50000000  1
  F  F94  1  0.50000000  0.00000000  0.50000000  1
  F  F95  1  0.50000000  0.50000000  0.50000000  1
  F  F96  1  0.16666667  0.33333333  0.33333333  1
  F  F97  1  0.66666667  0.83333333  0.33333333  1
  F  F98  1  0.16666667  0.83333333  0.33333333  1
  F  F99  1  0.66666667  0.83333333  0.83333333  1
  F  F100  1  0.16666667  0.33333333  0.83333333  1
  F  F101  1  0.16666667  0.83333333  0.83333333  1
  F  F102  1  0.83333333  0.66666667  0.66666667  1
  F  F103  1  0.33333333  0.16666667  0.66666667  1
  F  F104  1  0.83333333  0.16666667  0.66666667  1
  F  F105  1  0.33333333  0.16666667  0.16666667  1
  F  F106  1  0.83333333  0.66666667  0.16666667  1
  F  F107  1  0.83333333  0.16666667  0.16666667  1
  Li  Li108  1  0.02826492  0.21777751  0.53339416  1
  Li  Li109  1  -0.21777751  -0.18951259  0.53339416  1
  Li  Li110  1  0.18951259  -0.02826492  0.53339416  1
  Li  Li111  1  0.21777751  0.02826492  -0.03339416  1
  Li  Li112  1  -0.18951259  -0.21777751  -0.03339416  1
  Li  Li113  1  -0.02826492  0.18951259  -0.03339416  1
  Li  Li114  1  -0.02826492  -0.21777751  -0.53339416  1
  Li  Li115  1  0.21777751  0.18951259  -0.53339416  1
  Li  Li116  1  -0.18951259  0.02826492  -0.53339416  1
  Li  Li117  1  -0.21777751  -0.02826492  1.03339416  1
  Li  Li118  1  0.18951259  0.21777751  1.03339416  1
  Li  Li119  1  0.02826492  -0.18951259  1.03339416  1
  Li  Li120  1  0.69493159  0.55111084  0.86672749  1
  Li  Li121  1  0.44888916  0.14382075  0.86672749  1
  Li  Li122  1  0.85617925  0.30506841  0.86672749  1
  Li  Li123  1  0.88444418  0.36159826  0.29993917  1
  Li  Li124  1  0.47715408  0.11555582  0.29993917  1
  Li  Li125  1  0.63840174  0.52284592  0.29993917  1
  Li  Li126  1  0.63840174  0.11555582  -0.20006083  1
  Li  Li127  1  0.88444418  0.52284592  -0.20006083  1
  Li  Li128  1  0.47715408  0.36159826  -0.20006083  1
  Li  Li129  1  0.44888916  0.30506841  1.36672749  1
  Li  Li130  1  0.85617925  0.55111084  1.36672749  1
  Li  Li131  1  0.69493159  0.14382075  1.36672749  1
  Li  Li132  1  0.36159826  0.88444418  1.20006083  1
  Li  Li133  1  0.11555582  0.47715408  1.20006083  1
  Li  Li134  1  0.52284592  0.63840174  1.20006083  1
  Li  Li135  1  0.55111084  0.69493159  0.63327251  1
  Li  Li136  1  0.14382075  0.44888916  0.63327251  1
  Li  Li137  1  0.30506841  0.85617925  0.63327251  1
  Li  Li138  1  0.30506841  0.44888916  0.13327251  1
  Li  Li139  1  0.55111084  0.85617925  0.13327251  1
  Li  Li140  1  0.14382075  0.69493159  0.13327251  1
  Li  Li141  1  0.11555582  0.63840174  1.70006083  1
  Li  Li142  1  0.52284592  0.88444418  1.70006083  1
  Li  Li143  1  0.36159826  0.47715408  1.70006083  1
  Li  Li144  1  0.81981951  0.00000000  0.25000000  1
  Li  Li145  1  0.00000000  0.81981951  0.25000000  1
  Li  Li146  1  0.18018049  0.18018049  0.25000000  1
  Li  Li147  1  0.18018049  0.00000000  0.75000000  1
  Li  Li148  1  0.00000000  0.18018049  0.75000000  1
  Li  Li149  1  0.81981951  0.81981951  0.75000000  1
  Li  Li150  1  0.48648618  0.33333333  0.58333333  1
  Li  Li151  1  0.66666667  0.15315285  0.58333333  1
  Li  Li152  1  0.84684715  0.51351382  0.58333333  1
  Li  Li153  1  0.84684715  0.33333333  0.08333333  1
  Li  Li154  1  0.66666667  0.51351382  0.08333333  1
  Li  Li155  1  0.48648618  0.15315285  0.08333333  1
  Li  Li156  1  0.15315285  0.66666667  0.91666667  1
  Li  Li157  1  0.33333333  0.48648618  0.91666667  1
  Li  Li158  1  0.51351382  0.84684715  0.91666667  1
  Li  Li159  1  0.51351382  0.66666667  0.41666667  1
  Li  Li160  1  0.33333333  0.84684715  0.41666667  1
  Li  Li161  1  0.15315285  0.48648618  0.41666667  1
  Li  Li162  1  0.67753800  0.10891340  0.68210528  1
  Li  Li163  1  0.89108660  0.56862460  0.68210528  1
  Li  Li164  1  0.43137540  0.32246200  0.68210528  1
  Li  Li165  1  0.10891340  0.67753800  0.81789472  1
  Li  Li166  1  0.56862460  0.89108660  0.81789472  1
  Li  Li167  1  0.32246200  0.43137540  0.81789472  1
  Li  Li168  1  0.32246200  0.89108660  0.31789472  1
  Li  Li169  1  0.10891340  0.43137540  0.31789472  1
  Li  Li170  1  0.56862460  0.67753800  0.31789472  1
  Li  Li171  1  0.89108660  0.32246200  0.18210528  1
  Li  Li172  1  0.43137540  0.10891340  0.18210528  1
  Li  Li173  1  0.67753800  0.56862460  0.18210528  1
  Li  Li174  1  0.34420467  0.44224674  0.01543861  1
  Li  Li175  1  0.55775326  0.90195793  0.01543861  1
  Li  Li176  1  0.09804207  0.65579533  0.01543861  1
  Li  Li177  1  0.77558007  0.01087134  0.15122805  1
  Li  Li178  1  0.23529127  0.22441993  0.15122805  1
  Li  Li179  1  0.98912866  0.76470873  0.15122805  1
  Li  Li180  1  0.98912866  0.22441993  0.65122805  1
  Li  Li181  1  0.77558007  0.76470873  0.65122805  1
  Li  Li182  1  0.23529127  0.01087134  0.65122805  1
  Li  Li183  1  0.55775326  0.65579533  0.51543861  1
  Li  Li184  1  0.09804207  0.44224674  0.51543861  1
  Li  Li185  1  0.34420467  0.90195793  0.51543861  1
  Li  Li186  1  0.01087134  0.77558007  0.34877195  1
  Li  Li187  1  0.22441993  0.23529127  0.34877195  1
  Li  Li188  1  0.76470873  0.98912866  0.34877195  1
  Li  Li189  1  0.44224674  0.34420467  0.48456139  1
  Li  Li190  1  0.90195793  0.55775326  0.48456139  1
  Li  Li191  1  0.65579533  0.09804207  0.48456139  1
  Li  Li192  1  0.65579533  0.55775326  0.98456139  1
  Li  Li193  1  0.44224674  0.09804207  0.98456139  1
  Li  Li194  1  0.90195793  0.34420467  0.98456139  1
  Li  Li195  1  0.22441993  0.98912866  0.84877195  1
  Li  Li196  1  0.76470873  0.77558007  0.84877195  1
  Li  Li197  1  0.01087134  0.23529127  0.84877195  1
  Li  Li198  1  0.00000000  0.00000000  0.46325875  1
  Li  Li199  1  0.00000000  0.00000000  0.03674125  1
  Li  Li200  1  0.00000000  0.00000000  0.53674125  1
  Li  Li201  1  0.00000000  0.00000000  0.96325875  1
  Li  Li202  1  0.66666667  0.33333333  0.79659208  1
  Li  Li203  1  0.66666667  0.33333333  0.37007459  1
  Li  Li204  1  0.66666667  0.33333333  0.87007459  1
  Li  Li205  1  0.66666667  0.33333333  0.29659208  1
  Li  Li206  1  0.33333333  0.66666667  0.12992541  1
  Li  Li207  1  0.33333333  0.66666667  0.70340792  1
  Li  Li208  1  0.33333333  0.66666667  0.20340792  1
  Li  Li209  1  0.33333333  0.66666667  0.62992541  1
  Li  Li210  1  0.00000000  0.00000000  0.25000000  1
  Li  Li211  1  0.00000000  0.00000000  0.75000000  1
  Li  Li212  1  0.66666667  0.33333333  0.58333333  1
  Li  Li213  1  0.66666667  0.33333333  0.08333333  1
  Li  Li214  1  0.33333333  0.66666667  0.91666667  1
  Li  Li215  1  0.33333333  0.66666667  0.41666667  1
