# generated using pymatgen
data_LiF
_symmetry_space_group_name_H-M   'P 1'
_cell_length_a   7.94550687
_cell_length_b   10.07846522
_cell_length_c   10.24520879
_cell_angle_alpha   90.00000000
_cell_angle_beta   90.00000000
_cell_angle_gamma   90.00000000
_symmetry_Int_Tables_number   1
_chemical_formula_structural   LiF
_chemical_formula_sum   'Li24 F24'
_cell_volume   820.42110252
_cell_formula_units_Z   24
loop_
 _symmetry_equiv_pos_site_id
 _symmetry_equiv_pos_as_xyz
  1  'x, y, z'
loop_
 _atom_site_type_symbol
 _atom_site_label
 _atom_site_symmetry_multiplicity
 _atom_site_fract_x
 _atom_site_fract_y
 _atom_site_fract_z
 _atom_site_occupancy
  F  F0  1  0.25894949  0.41263277  0.08069775  1
  F  F1  1  0.24105051  0.58736723  0.58069775  1
  F  F2  1  0.74105051  0.91263277  0.91930225  1
  F  F3  1  0.75894949  0.08736723  0.41930225  1
  F  F4  1  0.74105051  0.58736723  0.91930225  1
  F  F5  1  0.75894949  0.41263277  0.41930225  1
  F  F6  1  0.25894949  0.08736723  0.08069775  1
  F  F7  1  0.24105051  0.91263277  0.58069775  1
  F  F8  1  0.79683257  0.25000000  0.11846500  1
  F  F9  1  0.70316743  0.75000000  0.61846500  1
  F  F10  1  0.20316743  0.75000000  0.88153500  1
  F  F11  1  0.29683257  0.25000000  0.38153500  1
  F  F12  1  0.53809937  0.35610616  0.75018784  1
  F  F13  1  0.96190063  0.64389384  0.25018784  1
  F  F14  1  0.46190063  0.85610616  0.24981216  1
  F  F15  1  0.03809937  0.14389384  0.74981216  1
  F  F16  1  0.46190063  0.64389384  0.24981216  1
  F  F17  1  0.03809937  0.35610616  0.74981216  1
  F  F18  1  0.53809937  0.14389384  0.75018784  1
  F  F19  1  0.96190063  0.85610616  0.25018784  1
  F  F20  1  0.00000000  0.00000000  0.50000000  1
  F  F21  1  0.50000000  -0.00000000  -0.00000000  1
  F  F22  1  0.00000000  0.50000000  0.50000000  1
  F  F23  1  0.50000000  0.50000000  0.00000000  1
  Li  Li24  1  0.40640394  0.25000000  0.23542788  1
  Li  Li25  1  0.09359606  0.75000000  0.73542788  1
  Li  Li26  1  0.59359606  0.75000000  0.76457212  1
  Li  Li27  1  0.90640394  0.25000000  0.26457212  1
  Li  Li28  1  0.73064443  0.63629948  0.05392054  1
  Li  Li29  1  -0.23064443  -0.63629948  0.55392054  1
  Li  Li30  1  -0.73064443  1.13629948  -0.05392054  1
  Li  Li31  1  1.23064443  -0.13629948  0.44607946  1
  Li  Li32  1  -0.73064443  -0.63629948  -0.05392054  1
  Li  Li33  1  1.23064443  0.63629948  0.44607946  1
  Li  Li34  1  0.73064443  -0.13629948  0.05392054  1
  Li  Li35  1  -0.23064443  1.13629948  0.55392054  1
  Li  Li36  1  0.80945227  0.25000000  0.42681355  1
  Li  Li37  1  0.69054773  0.75000000  0.92681355  1
  Li  Li38  1  0.19054773  0.75000000  0.57318645  1
  Li  Li39  1  0.30945227  0.25000000  0.07318645  1
  Li  Li40  1  0.52941917  0.25000000  0.15383873  1
  Li  Li41  1  0.97058083  0.75000000  0.65383873  1
  Li  Li42  1  0.47058083  0.75000000  0.84616127  1
  Li  Li43  1  0.02941917  0.25000000  0.34616127  1
  Li  Li44  1  0.00000000  0.00000000  0.00000000  1
  Li  Li45  1  0.50000000  -0.00000000  0.50000000  1
  Li  Li46  1  0.00000000  0.50000000  0.00000000  1
  Li  Li47  1  0.50000000  0.50000000  0.50000000  1
