# generated using pymatgen
data_LiF
_symmetry_space_group_name_H-M   'P 1'
_cell_length_a   8.68817372
_cell_length_b   8.68817372
_cell_length_c   10.47128331
_cell_angle_alpha   90.00000000
_cell_angle_beta   90.00000000
_cell_angle_gamma   120.00000000
_symmetry_Int_Tables_number   1
_chemical_formula_structural   LiF
_chemical_formula_sum   'Li30 F30'
_cell_volume   684.52219452
_cell_formula_units_Z   30
loop_
 _symmetry_equiv_pos_site_id
 _symmetry_equiv_pos_as_xyz
  1  'x, y, z'
loop_
 _atom_site_type_symbol
 _atom_site_label
 _atom_site_symmetry_multiplicity
 _atom_site_fract_x
 _atom_site_fract_y
 _atom_site_fract_z
 _atom_site_occupancy
  F  F0  1  0.66666667  0.33333333  0.50000000  1
  F  F1  1  0.66666667  0.33333333  0.93881772  1
  F  F2  1  0.66666667  0.33333333  0.06118228  1
  F  F3  1  0.96716543  0.69123833  0.93510539  1
  F  F4  1  0.30876167  0.27592710  0.93510539  1
  F  F5  1  0.72407290  0.03283457  0.93510539  1
  F  F6  1  0.30876167  0.03283457  0.06489461  1
  F  F7  1  0.72407290  0.69123833  0.06489461  1
  F  F8  1  0.96716543  0.27592710  0.06489461  1
  F  F9  1  0.17446683  0.45107835  0.17883608  1
  F  F10  1  0.54892165  0.72338847  0.17883608  1
  F  F11  1  0.27661153  0.82553317  0.17883608  1
  F  F12  1  0.54892165  0.82553317  0.82116392  1
  F  F13  1  0.27661153  0.45107835  0.82116392  1
  F  F14  1  0.17446683  0.72338847  0.82116392  1
  F  F15  1  0.84385979  0.64697089  0.46457819  1
  F  F16  1  0.35302911  0.19688890  0.46457819  1
  F  F17  1  0.80311110  0.15614021  0.46457819  1
  F  F18  1  0.35302911  0.15614021  0.53542181  1
  F  F19  1  0.80311110  0.64697089  0.53542181  1
  F  F20  1  0.84385979  0.19688890  0.53542181  1
  F  F21  1  0.53446572  0.02237069  0.52826472  1
  F  F22  1  0.97762931  0.51209503  0.52826472  1
  F  F23  1  0.48790497  0.46553428  0.52826472  1
  F  F24  1  0.97762931  0.46553428  0.47173528  1
  F  F25  1  0.48790497  0.02237069  0.47173528  1
  F  F26  1  0.53446572  0.51209503  0.47173528  1
  F  F27  1  0.95268056  0.04731944  0.50000000  1
  F  F28  1  0.95268056  0.90536112  0.50000000  1
  F  F29  1  0.09463888  0.04731944  0.50000000  1
  Li  Li30  1  0.21074263  0.80368143  0.34601654  1
  Li  Li31  1  -0.80368143  -0.59293880  0.34601654  1
  Li  Li32  1  0.59293880  -0.21074263  0.34601654  1
  Li  Li33  1  -0.80368143  -0.21074263  -0.34601654  1
  Li  Li34  1  0.59293880  0.80368143  -0.34601654  1
  Li  Li35  1  0.21074263  -0.59293880  -0.34601654  1
  Li  Li36  1  0.04919114  0.43053835  0.19490639  1
  Li  Li37  1  0.56946165  0.61865279  0.19490639  1
  Li  Li38  1  0.38134721  0.95080886  0.19490639  1
  Li  Li39  1  0.56946165  0.95080886  0.80509361  1
  Li  Li40  1  0.38134721  0.43053835  0.80509361  1
  Li  Li41  1  0.04919114  0.61865279  0.80509361  1
  Li  Li42  1  0.22391372  0.59125085  0.18158749  1
  Li  Li43  1  0.40874915  0.63266287  0.18158749  1
  Li  Li44  1  0.36733713  0.77608628  0.18158749  1
  Li  Li45  1  0.40874915  0.77608628  0.81841251  1
  Li  Li46  1  0.36733713  0.59125085  0.81841251  1
  Li  Li47  1  0.22391372  0.63266287  0.81841251  1
  Li  Li48  1  0.00000000  0.00000000  0.17412475  1
  Li  Li49  1  0.00000000  0.00000000  0.82587525  1
  Li  Li50  1  0.12618406  0.87381594  0.00000000  1
  Li  Li51  1  0.12618406  0.25236812  0.00000000  1
  Li  Li52  1  0.74763188  0.87381594  0.00000000  1
  Li  Li53  1  0.33333333  0.66666667  0.50000000  1
  Li  Li54  1  0.61080365  0.40679963  0.89455672  1
  Li  Li55  1  0.59320037  0.20400402  0.89455672  1
  Li  Li56  1  0.79599598  0.38919635  0.89455672  1
  Li  Li57  1  0.59320037  0.38919635  0.10544328  1
  Li  Li58  1  0.79599598  0.40679963  0.10544328  1
  Li  Li59  1  0.61080365  0.20400402  0.10544328  1
