# generated using pymatgen
data_Li2Y2Mo2P3
_symmetry_space_group_name_H-M   'P 1'
_cell_length_a   5.14883626
_cell_length_b   5.28706224
_cell_length_c   6.87870260
_cell_angle_alpha   93.87662200
_cell_angle_beta   98.75413188
_cell_angle_gamma   105.94715555
_symmetry_Int_Tables_number   1
_chemical_formula_structural   Li2Y2Mo2P3
_chemical_formula_sum   'Li2 Y2 Mo2 P3'
_cell_volume   176.76613563
_cell_formula_units_Z   1
loop_
 _symmetry_equiv_pos_site_id
 _symmetry_equiv_pos_as_xyz
  1  'x, y, z'
loop_
 _atom_site_type_symbol
 _atom_site_label
 _atom_site_symmetry_multiplicity
 _atom_site_fract_x
 _atom_site_fract_y
 _atom_site_fract_z
 _atom_site_occupancy
  Y  Y0  1  0.00000000  0.00000000  0.00000000  1
  Y  Y1  1  0.50000000  0.50000000  0.50000000  1
  P  P2  1  0.50000000  0.50000000  0.00000000  1
  P  P3  1  0.50000000  0.00000000  0.50000000  1
  P  P4  1  0.00000000  0.50000000  0.50000000  1
  Mo  Mo5  1  0.30948533  0.99005225  0.24360643  1
  Mo  Mo6  1  0.13152605  0.61149434  0.39036480  1
  Li  Li7  1  0.20900126  0.97767575  0.42444315  1
  Li  Li8  1  0.26451802  0.75134391  0.83596476  1
