# generated using pymatgen
data_LiF
_symmetry_space_group_name_H-M   'P 1'
_cell_length_a   5.46859644
_cell_length_b   6.51437589
_cell_length_c   5.56691587
_cell_angle_alpha   90.00000000
_cell_angle_beta   90.00000000
_cell_angle_gamma   90.00000000
_symmetry_Int_Tables_number   1
_chemical_formula_structural   LiF
_chemical_formula_sum   'Li6 F6'
_cell_volume   198.31855437
_cell_formula_units_Z   6
loop_
 _symmetry_equiv_pos_site_id
 _symmetry_equiv_pos_as_xyz
  1  'x, y, z'
loop_
 _atom_site_type_symbol
 _atom_site_label
 _atom_site_symmetry_multiplicity
 _atom_site_fract_x
 _atom_site_fract_y
 _atom_site_fract_z
 _atom_site_occupancy
  F  F0  1  0.70224027  0.02002090  0.00000000  1
  F  F1  1  -0.70224027  -0.02002090  -0.00000000  1
  F  F2  1  -0.20224027  0.52002090  0.50000000  1
  F  F3  1  1.20224027  0.47997910  0.50000000  1
  F  F4  1  0.00000000  0.00000000  0.50000000  1
  F  F5  1  0.50000000  0.50000000  0.00000000  1
  Li  Li6  1  0.48210918  0.67307076  0.00000000  1
  Li  Li7  1  0.51789082  0.32692924  0.00000000  1
  Li  Li8  1  0.01789082  0.17307076  0.50000000  1
  Li  Li9  1  0.98210918  0.82692924  0.50000000  1
  Li  Li10  1  0.00000000  0.50000000  0.50000000  1
  Li  Li11  1  0.50000000  0.00000000  0.00000000  1
