# generated using pymatgen
data_Li2Y2Sb2As2P
_symmetry_space_group_name_H-M   'P 1'
_cell_length_a   5.03831089
_cell_length_b   5.02147902
_cell_length_c   7.24660079
_cell_angle_alpha   94.73950652
_cell_angle_beta   100.32165987
_cell_angle_gamma   109.03671400
_symmetry_Int_Tables_number   1
_chemical_formula_structural   Li2Y2Sb2As2P
_chemical_formula_sum   'Li2 Y2 Sb2 As2 P1'
_cell_volume   168.53305891
_cell_formula_units_Z   1
loop_
 _symmetry_equiv_pos_site_id
 _symmetry_equiv_pos_as_xyz
  1  'x, y, z'
loop_
 _atom_site_type_symbol
 _atom_site_label
 _atom_site_symmetry_multiplicity
 _atom_site_fract_x
 _atom_site_fract_y
 _atom_site_fract_z
 _atom_site_occupancy
  P  P0  1  0.00000000  0.00000000  0.00000000  1
  As  As1  1  0.50000000  0.50000000  0.50000000  1
  As  As2  1  0.50000000  0.50000000  0.00000000  1
  Li  Li3  1  0.50000000  0.00000000  0.50000000  1
  Li  Li4  1  0.00000000  0.50000000  0.50000000  1
  Y  Y5  1  0.17782775  0.61307868  0.00171869  1
  Y  Y6  1  0.18785086  0.95035364  0.71144357  1
  Sb  Sb7  1  0.02164759  0.83608497  0.87710682  1
  Sb  Sb8  1  0.39100462  0.70127984  0.98778980  1
