# generated using pymatgen
data_LiF
_symmetry_space_group_name_H-M   'P 1'
_cell_length_a   8.30171663
_cell_length_b   8.30171663
_cell_length_c   11.10215956
_cell_angle_alpha   90.00000000
_cell_angle_beta   90.00000000
_cell_angle_gamma   120.00000000
_symmetry_Int_Tables_number   1
_chemical_formula_structural   LiF
_chemical_formula_sum   'Li22 F22'
_cell_volume   662.63429055
_cell_formula_units_Z   22
loop_
 _symmetry_equiv_pos_site_id
 _symmetry_equiv_pos_as_xyz
  1  'x, y, z'
loop_
 _atom_site_type_symbol
 _atom_site_label
 _atom_site_symmetry_multiplicity
 _atom_site_fract_x
 _atom_site_fract_y
 _atom_site_fract_z
 _atom_site_occupancy
  F  F0  1  0.65005106  0.05806102  0.79436104  1
  F  F1  1  0.94193898  0.59199004  0.79436104  1
  F  F2  1  0.40800996  0.34994894  0.79436104  1
  F  F3  1  0.94193898  0.34994894  0.20563896  1
  F  F4  1  0.40800996  0.05806102  0.20563896  1
  F  F5  1  0.65005106  0.59199004  0.20563896  1
  F  F6  1  0.90897609  0.31135163  0.00878979  1
  F  F7  1  0.68864837  0.59762446  0.00878979  1
  F  F8  1  0.40237554  0.09102391  0.00878979  1
  F  F9  1  0.68864837  0.09102391  0.99121021  1
  F  F10  1  0.40237554  0.31135163  0.99121021  1
  F  F11  1  0.90897609  0.59762446  0.99121021  1
  F  F12  1  0.32418221  0.70644323  0.11549613  1
  F  F13  1  0.29355677  0.61773899  0.11549613  1
  F  F14  1  0.38226101  0.67581779  0.11549613  1
  F  F15  1  0.29355677  0.67581779  0.88450387  1
  F  F16  1  0.38226101  0.70644323  0.88450387  1
  F  F17  1  0.32418221  0.61773899  0.88450387  1
  F  F18  1  0.87958455  0.12041545  0.50000000  1
  F  F19  1  0.87958455  0.75916909  0.50000000  1
  F  F20  1  0.24083091  0.12041545  0.50000000  1
  F  F21  1  0.00000000  0.00000000  0.50000000  1
  Li  Li22  1  0.66666667  0.33333333  0.50000000  1
  Li  Li23  1  0.55672007  0.21208581  0.30979266  1
  Li  Li24  1  -0.21208581  0.34463426  0.30979266  1
  Li  Li25  1  -0.34463426  -0.55672007  0.30979266  1
  Li  Li26  1  -0.21208581  -0.55672007  -0.30979266  1
  Li  Li27  1  -0.34463426  0.21208581  -0.30979266  1
  Li  Li28  1  0.55672007  0.34463426  -0.30979266  1
  Li  Li29  1  0.73495570  0.93315938  0.40391962  1
  Li  Li30  1  0.06684062  0.80179632  0.40391962  1
  Li  Li31  1  0.19820368  0.26504430  0.40391962  1
  Li  Li32  1  0.06684062  0.26504430  0.59608038  1
  Li  Li33  1  0.19820368  0.93315938  0.59608038  1
  Li  Li34  1  0.73495570  0.80179632  0.59608038  1
  Li  Li35  1  0.17143582  0.90901440  0.13767876  1
  Li  Li36  1  0.09098560  0.26242142  0.13767876  1
  Li  Li37  1  0.73757858  0.82856418  0.13767876  1
  Li  Li38  1  0.09098560  0.82856418  0.86232124  1
  Li  Li39  1  0.73757858  0.90901440  0.86232124  1
  Li  Li40  1  0.17143582  0.26242142  0.86232124  1
  Li  Li41  1  0.46111305  0.53888695  0.00000000  1
  Li  Li42  1  0.46111305  0.92222609  0.00000000  1
  Li  Li43  1  0.07777391  0.53888695  0.00000000  1
