# generated using pymatgen
data_LiCaF3
_symmetry_space_group_name_H-M   'P 1'
_cell_length_a   14.28565655
_cell_length_b   14.28565655
_cell_length_c   8.34572443
_cell_angle_alpha   90.00000000
_cell_angle_beta   90.00000000
_cell_angle_gamma   120.00000000
_symmetry_Int_Tables_number   1
_chemical_formula_structural   LiCaF3
_chemical_formula_sum   'Li18 Ca18 F54'
_cell_volume   1475.01039838
_cell_formula_units_Z   18
loop_
 _symmetry_equiv_pos_site_id
 _symmetry_equiv_pos_as_xyz
  1  'x, y, z'
loop_
 _atom_site_type_symbol
 _atom_site_label
 _atom_site_symmetry_multiplicity
 _atom_site_fract_x
 _atom_site_fract_y
 _atom_site_fract_z
 _atom_site_occupancy
  Ca  Ca0  1  0.00000000  0.00000000  0.77950366  1
  Ca  Ca1  1  0.00000000  0.00000000  0.22049634  1
  Ca  Ca2  1  0.79211805  0.60662262  0.00000000  1
  Ca  Ca3  1  0.39337738  0.18549543  0.00000000  1
  Ca  Ca4  1  0.81450457  0.20788195  0.00000000  1
  Ca  Ca5  1  0.60662262  0.79211805  0.00000000  1
  Ca  Ca6  1  0.18549543  0.39337738  0.00000000  1
  Ca  Ca7  1  0.20788195  0.81450457  -0.00000000  1
  Ca  Ca8  1  0.19104617  0.69483845  0.50000000  1
  Ca  Ca9  1  0.30516155  0.49620771  0.50000000  1
  Ca  Ca10  1  0.50379229  0.80895383  0.50000000  1
  Ca  Ca11  1  0.69483845  0.19104617  0.50000000  1
  Ca  Ca12  1  0.49620771  0.30516155  0.50000000  1
  Ca  Ca13  1  0.80895383  0.50379229  0.50000000  1
  Ca  Ca14  1  0.00000000  0.00000000  0.00000000  1
  Ca  Ca15  1  0.15137801  0.00000000  0.00000000  1
  Ca  Ca16  1  0.00000000  0.15137801  0.00000000  1
  Ca  Ca17  1  0.84862199  0.84862199  -0.00000000  1
  F  F18  1  0.24477145  0.92279200  0.79166310  1
  F  F19  1  -0.92279200  -0.67802055  0.79166310  1
  F  F20  1  0.67802055  -0.24477145  0.79166310  1
  F  F21  1  0.24477145  0.92279200  -0.79166310  1
  F  F22  1  -0.92279200  -0.67802055  -0.79166310  1
  F  F23  1  0.67802055  -0.24477145  -0.79166310  1
  F  F24  1  0.92279200  0.24477145  -0.79166310  1
  F  F25  1  -0.67802055  -0.92279200  -0.79166310  1
  F  F26  1  -0.24477145  0.67802055  -0.79166310  1
  F  F27  1  0.92279200  0.24477145  0.79166310  1
  F  F28  1  -0.67802055  -0.92279200  0.79166310  1
  F  F29  1  -0.24477145  0.67802055  0.79166310  1
  F  F30  1  0.80953423  0.42464072  0.41343996  1
  F  F31  1  0.57535928  0.38489351  0.41343996  1
  F  F32  1  0.61510649  0.19046577  0.41343996  1
  F  F33  1  0.80953423  0.42464072  0.58656004  1
  F  F34  1  0.57535928  0.38489351  0.58656004  1
  F  F35  1  0.61510649  0.19046577  0.58656004  1
  F  F36  1  0.42464072  0.80953423  0.58656004  1
  F  F37  1  0.38489351  0.57535928  0.58656004  1
  F  F38  1  0.19046577  0.61510649  0.58656004  1
  F  F39  1  0.42464072  0.80953423  0.41343996  1
  F  F40  1  0.38489351  0.57535928  0.41343996  1
  F  F41  1  0.19046577  0.61510649  0.41343996  1
  F  F42  1  0.03843701  0.20684114  0.15784651  1
  F  F43  1  0.79315886  0.83159587  0.15784651  1
  F  F44  1  0.16840413  0.96156299  0.15784651  1
  F  F45  1  0.03843701  0.20684114  0.84215349  1
  F  F46  1  0.79315886  0.83159587  0.84215349  1
  F  F47  1  0.16840413  0.96156299  0.84215349  1
  F  F48  1  0.20684114  0.03843701  0.84215349  1
  F  F49  1  0.83159587  0.79315886  0.84215349  1
  F  F50  1  0.96156299  0.16840413  0.84215349  1
  F  F51  1  0.20684114  0.03843701  0.15784651  1
  F  F52  1  0.83159587  0.79315886  0.15784651  1
  F  F53  1  0.96156299  0.16840413  0.15784651  1
  F  F54  1  0.39886667  0.03790960  0.70947300  1
  F  F55  1  0.96209040  0.36095708  0.70947300  1
  F  F56  1  0.63904292  0.60113333  0.70947300  1
  F  F57  1  0.39886667  0.03790960  0.29052700  1
  F  F58  1  0.96209040  0.36095708  0.29052700  1
  F  F59  1  0.63904292  0.60113333  0.29052700  1
  F  F60  1  0.03790960  0.39886667  0.29052700  1
  F  F61  1  0.36095708  0.96209040  0.29052700  1
  F  F62  1  0.60113333  0.63904292  0.29052700  1
  F  F63  1  0.03790960  0.39886667  0.70947300  1
  F  F64  1  0.36095708  0.96209040  0.70947300  1
  F  F65  1  0.60113333  0.63904292  0.70947300  1
  F  F66  1  0.74674797  0.45864827  -0.00000000  1
  F  F67  1  0.54135173  0.28809970  0.00000000  1
  F  F68  1  0.71190030  0.25325203  0.00000000  1
  F  F69  1  0.45864827  0.74674797  -0.00000000  1
  F  F70  1  0.28809970  0.54135173  0.00000000  1
  F  F71  1  0.25325203  0.71190030  0.00000000  1
  Li  Li72  1  0.42832006  0.31538120  0.28732319  1
  Li  Li73  1  0.68461880  0.11293886  0.28732319  1
  Li  Li74  1  0.88706114  0.57167994  0.28732319  1
  Li  Li75  1  0.42832006  0.31538120  0.71267681  1
  Li  Li76  1  0.68461880  0.11293886  0.71267681  1
  Li  Li77  1  0.88706114  0.57167994  0.71267681  1
  Li  Li78  1  0.31538120  0.42832006  0.71267681  1
  Li  Li79  1  0.11293886  0.68461880  0.71267681  1
  Li  Li80  1  0.57167994  0.88706114  0.71267681  1
  Li  Li81  1  0.31538120  0.42832006  0.28732319  1
  Li  Li82  1  0.11293886  0.68461880  0.28732319  1
  Li  Li83  1  0.57167994  0.88706114  0.28732319  1
  Li  Li84  1  0.43874892  0.00000000  0.00000000  1
  Li  Li85  1  0.00000000  0.43874892  0.00000000  1
  Li  Li86  1  0.56125108  0.56125108  0.00000000  1
  Li  Li87  1  0.38392048  0.00000000  0.50000000  1
  Li  Li88  1  0.00000000  0.38392048  0.50000000  1
  Li  Li89  1  0.61607952  0.61607952  0.50000000  1
