# generated using pymatgen
data_LiF
_symmetry_space_group_name_H-M   'P 1'
_cell_length_a   8.41351866
_cell_length_b   10.84124258
_cell_length_c   9.13620913
_cell_angle_alpha   90.00000000
_cell_angle_beta   90.00000000
_cell_angle_gamma   90.00000000
_symmetry_Int_Tables_number   1
_chemical_formula_structural   LiF
_chemical_formula_sum   'Li24 F24'
_cell_volume   833.34101352
_cell_formula_units_Z   24
loop_
 _symmetry_equiv_pos_site_id
 _symmetry_equiv_pos_as_xyz
  1  'x, y, z'
loop_
 _atom_site_type_symbol
 _atom_site_label
 _atom_site_symmetry_multiplicity
 _atom_site_fract_x
 _atom_site_fract_y
 _atom_site_fract_z
 _atom_site_occupancy
  F  F0  1  0.25470303  0.84349940  0.94177001  1
  F  F1  1  0.24529697  0.15650060  0.44177001  1
  F  F2  1  0.74529697  0.34349940  0.05822999  1
  F  F3  1  0.75470303  0.65650060  0.55822999  1
  F  F4  1  0.74529697  0.15650060  0.05822999  1
  F  F5  1  0.75470303  0.84349940  0.55822999  1
  F  F6  1  0.25470303  0.65650060  0.94177001  1
  F  F7  1  0.24529697  0.34349940  0.44177001  1
  F  F8  1  0.92038830  0.91667740  0.86928685  1
  F  F9  1  0.57961170  0.08332260  0.36928685  1
  F  F10  1  0.07961170  0.41667740  0.13071315  1
  F  F11  1  0.42038830  0.58332260  0.63071315  1
  F  F12  1  0.07961170  0.08332260  0.13071315  1
  F  F13  1  0.42038830  0.91667740  0.63071315  1
  F  F14  1  0.92038830  0.58332260  0.86928685  1
  F  F15  1  0.57961170  0.41667740  0.36928685  1
  F  F16  1  0.94680866  0.44188776  0.69520086  1
  F  F17  1  0.55319134  0.55811224  0.19520086  1
  F  F18  1  0.05319134  0.94188776  0.30479914  1
  F  F19  1  0.44680866  0.05811224  0.80479914  1
  F  F20  1  0.05319134  0.55811224  0.30479914  1
  F  F21  1  0.44680866  0.44188776  0.80479914  1
  F  F22  1  0.94680866  0.05811224  0.69520086  1
  F  F23  1  0.55319134  0.94188776  0.19520086  1
  Li  Li24  1  0.74577887  0.25000000  0.39133979  1
  Li  Li25  1  0.75422113  0.75000000  0.89133979  1
  Li  Li26  1  0.25422113  0.75000000  0.60866021  1
  Li  Li27  1  0.24577887  0.25000000  0.10866021  1
  Li  Li28  1  0.64324100  0.49333780  0.06993474  1
  Li  Li29  1  -0.14324100  -0.49333780  0.56993474  1
  Li  Li30  1  -0.64324100  0.99333780  -0.06993474  1
  Li  Li31  1  1.14324100  0.00666220  0.43006526  1
  Li  Li32  1  -0.64324100  -0.49333780  -0.06993474  1
  Li  Li33  1  1.14324100  0.49333780  0.43006526  1
  Li  Li34  1  0.64324100  0.00666220  0.06993474  1
  Li  Li35  1  -0.14324100  0.99333780  0.56993474  1
  Li  Li36  1  0.91477428  0.64117759  0.44112288  1
  Li  Li37  1  0.58522572  0.35882241  0.94112288  1
  Li  Li38  1  0.08522572  0.14117759  0.55887712  1
  Li  Li39  1  0.41477428  0.85882241  0.05887712  1
  Li  Li40  1  0.08522572  0.35882241  0.55887712  1
  Li  Li41  1  0.41477428  0.64117759  0.05887712  1
  Li  Li42  1  0.91477428  0.85882241  0.44112288  1
  Li  Li43  1  0.58522572  0.14117759  0.94112288  1
  Li  Li44  1  0.00000000  0.00000000  0.00000000  1
  Li  Li45  1  0.50000000  0.00000000  0.50000000  1
  Li  Li46  1  0.00000000  0.50000000  0.00000000  1
  Li  Li47  1  0.50000000  0.50000000  0.50000000  1
