# generated using pymatgen
data_LiF
_symmetry_space_group_name_H-M   'P 1'
_cell_length_a   15.28325257
_cell_length_b   15.28325257
_cell_length_c   7.61700839
_cell_angle_alpha   90.00000000
_cell_angle_beta   90.00000000
_cell_angle_gamma   120.00000000
_symmetry_Int_Tables_number   1
_chemical_formula_structural   LiF
_chemical_formula_sum   'Li72 F72'
_cell_volume   1540.80133471
_cell_formula_units_Z   72
loop_
 _symmetry_equiv_pos_site_id
 _symmetry_equiv_pos_as_xyz
  1  'x, y, z'
loop_
 _atom_site_type_symbol
 _atom_site_label
 _atom_site_symmetry_multiplicity
 _atom_site_fract_x
 _atom_site_fract_y
 _atom_site_fract_z
 _atom_site_occupancy
  F  F0  1  0.78468039  0.10438313  0.50476985  1
  F  F1  1  0.89561687  0.68029726  0.50476985  1
  F  F2  1  0.31970274  0.21531961  0.50476985  1
  F  F3  1  0.10438313  0.78468039  0.99523015  1
  F  F4  1  0.68029726  0.89561687  0.99523015  1
  F  F5  1  0.21531961  0.31970274  0.99523015  1
  F  F6  1  0.21531961  0.89561687  0.49523015  1
  F  F7  1  0.10438313  0.31970274  0.49523015  1
  F  F8  1  0.68029726  0.78468039  0.49523015  1
  F  F9  1  0.89561687  0.21531961  0.00476985  1
  F  F10  1  0.31970274  0.10438313  0.00476985  1
  F  F11  1  0.78468039  0.68029726  0.00476985  1
  F  F12  1  0.45134705  0.43771646  0.83810318  1
  F  F13  1  0.56228354  0.01363059  0.83810318  1
  F  F14  1  0.98636941  0.54865295  0.83810318  1
  F  F15  1  0.77104980  0.11801372  0.32856348  1
  F  F16  1  0.34696392  0.22895020  0.32856348  1
  F  F17  1  0.88198628  0.65303608  0.32856348  1
  F  F18  1  0.88198628  0.22895020  0.82856348  1
  F  F19  1  0.77104980  0.65303608  0.82856348  1
  F  F20  1  0.34696392  0.11801372  0.82856348  1
  F  F21  1  0.56228354  0.54865295  0.33810318  1
  F  F22  1  0.98636941  0.43771646  0.33810318  1
  F  F23  1  0.45134705  0.01363059  0.33810318  1
  F  F24  1  0.11801372  0.77104980  0.17143652  1
  F  F25  1  0.22895020  0.34696392  0.17143652  1
  F  F26  1  0.65303608  0.88198628  0.17143652  1
  F  F27  1  0.43771646  0.45134705  0.66189682  1
  F  F28  1  0.01363059  0.56228354  0.66189682  1
  F  F29  1  0.54865295  0.98636941  0.66189682  1
  F  F30  1  0.54865295  0.56228354  0.16189682  1
  F  F31  1  0.43771646  0.98636941  0.16189682  1
  F  F32  1  0.01363059  0.45134705  0.16189682  1
  F  F33  1  0.22895020  0.88198628  0.67143652  1
  F  F34  1  0.65303608  0.77104980  0.67143652  1
  F  F35  1  0.11801372  0.34696392  0.67143652  1
  F  F36  1  0.08458346  0.38588744  0.53989280  1
  F  F37  1  0.61411256  0.69869602  0.53989280  1
  F  F38  1  0.30130398  0.91541654  0.53989280  1
  F  F39  1  0.38588744  0.08458346  0.96010720  1
  F  F40  1  0.69869602  0.61411256  0.96010720  1
  F  F41  1  0.91541654  0.30130398  0.96010720  1
  F  F42  1  0.91541654  0.61411256  0.46010720  1
  F  F43  1  0.38588744  0.30130398  0.46010720  1
  F  F44  1  0.69869602  0.08458346  0.46010720  1
  F  F45  1  0.61411256  0.91541654  0.03989280  1
  F  F46  1  0.30130398  0.38588744  0.03989280  1
  F  F47  1  0.08458346  0.69869602  0.03989280  1
  F  F48  1  0.75125013  0.71922078  0.87322613  1
  F  F49  1  0.28077922  0.03202935  0.87322613  1
  F  F50  1  0.96797065  0.24874987  0.87322613  1
  F  F51  1  0.05255411  0.41791680  0.29344053  1
  F  F52  1  0.36536269  0.94744589  0.29344053  1
  F  F53  1  0.58208320  0.63463731  0.29344053  1
  F  F54  1  0.58208320  0.94744589  0.79344053  1
  F  F55  1  0.05255411  0.63463731  0.79344053  1
  F  F56  1  0.36536269  0.41791680  0.79344053  1
  F  F57  1  0.28077922  0.24874987  0.37322613  1
  F  F58  1  0.96797065  0.71922078  0.37322613  1
  F  F59  1  0.75125013  0.03202935  0.37322613  1
  F  F60  1  0.41791680  0.05255411  0.20655947  1
  F  F61  1  0.94744589  0.36536269  0.20655947  1
  F  F62  1  0.63463731  0.58208320  0.20655947  1
  F  F63  1  0.71922078  0.75125013  0.62677387  1
  F  F64  1  0.03202935  0.28077922  0.62677387  1
  F  F65  1  0.24874987  0.96797065  0.62677387  1
  F  F66  1  0.24874987  0.28077922  0.12677387  1
  F  F67  1  0.71922078  0.96797065  0.12677387  1
  F  F68  1  0.03202935  0.75125013  0.12677387  1
  F  F69  1  0.94744589  0.58208320  0.70655947  1
  F  F70  1  0.63463731  0.05255411  0.70655947  1
  F  F71  1  0.41791680  0.36536269  0.70655947  1
  Li  Li72  1  0.15973466  0.00000000  0.25000000  1
  Li  Li73  1  0.00000000  0.15973466  0.25000000  1
  Li  Li74  1  0.84026534  0.84026534  0.25000000  1
  Li  Li75  1  0.84026534  0.00000000  0.75000000  1
  Li  Li76  1  0.00000000  0.84026534  0.75000000  1
  Li  Li77  1  0.15973466  0.15973466  0.75000000  1
  Li  Li78  1  0.82640132  0.33333333  0.58333333  1
  Li  Li79  1  0.66666667  0.49306799  0.58333333  1
  Li  Li80  1  0.50693201  0.17359868  0.58333333  1
  Li  Li81  1  0.50693201  0.33333333  0.08333333  1
  Li  Li82  1  0.66666667  0.17359868  0.08333333  1
  Li  Li83  1  0.82640132  0.49306799  0.08333333  1
  Li  Li84  1  0.49306799  0.66666667  0.91666667  1
  Li  Li85  1  0.33333333  0.82640132  0.91666667  1
  Li  Li86  1  0.17359868  0.50693201  0.91666667  1
  Li  Li87  1  0.17359868  0.66666667  0.41666667  1
  Li  Li88  1  0.33333333  0.50693201  0.41666667  1
  Li  Li89  1  0.49306799  0.82640132  0.41666667  1
  Li  Li90  1  0.55150141  0.46262596  0.72162244  1
  Li  Li91  1  -0.46262596  0.08887545  0.72162244  1
  Li  Li92  1  -0.08887545  -0.55150141  0.72162244  1
  Li  Li93  1  0.46262596  0.55150141  -0.22162244  1
  Li  Li94  1  0.08887545  -0.46262596  -0.22162244  1
  Li  Li95  1  -0.55150141  -0.08887545  -0.22162244  1
  Li  Li96  1  -0.55150141  -0.46262596  -0.72162244  1
  Li  Li97  1  0.46262596  -0.08887545  -0.72162244  1
  Li  Li98  1  0.08887545  0.55150141  -0.72162244  1
  Li  Li99  1  -0.46262596  -0.55150141  1.22162244  1
  Li  Li100  1  -0.08887545  0.46262596  1.22162244  1
  Li  Li101  1  0.55150141  0.08887545  1.22162244  1
  Li  Li102  1  1.21816808  0.79595929  1.05495577  1
  Li  Li103  1  0.20404071  0.42220879  1.05495577  1
  Li  Li104  1  0.57779121  -0.21816808  1.05495577  1
  Li  Li105  1  1.12929262  0.88483474  0.11171090  1
  Li  Li106  1  0.75554212  -0.12929262  0.11171090  1
  Li  Li107  1  0.11516526  0.24445788  0.11171090  1
  Li  Li108  1  0.11516526  -0.12929262  -0.38828910  1
  Li  Li109  1  1.12929262  0.24445788  -0.38828910  1
  Li  Li110  1  0.75554212  0.88483474  -0.38828910  1
  Li  Li111  1  0.20404071  -0.21816808  1.55495577  1
  Li  Li112  1  0.57779121  0.79595929  1.55495577  1
  Li  Li113  1  1.21816808  0.42220879  1.55495577  1
  Li  Li114  1  0.88483474  1.12929262  1.38828910  1
  Li  Li115  1  -0.12929262  0.75554212  1.38828910  1
  Li  Li116  1  0.24445788  0.11516526  1.38828910  1
  Li  Li117  1  0.79595929  1.21816808  0.44504423  1
  Li  Li118  1  0.42220879  0.20404071  0.44504423  1
  Li  Li119  1  -0.21816808  0.57779121  0.44504423  1
  Li  Li120  1  -0.21816808  0.20404071  -0.05495577  1
  Li  Li121  1  0.79595929  0.57779121  -0.05495577  1
  Li  Li122  1  0.42220879  1.21816808  -0.05495577  1
  Li  Li123  1  -0.12929262  0.11516526  1.88828910  1
  Li  Li124  1  0.24445788  1.12929262  1.88828910  1
  Li  Li125  1  0.88483474  0.75554212  1.88828910  1
  Li  Li126  1  0.50000000  0.00000000  -0.00000000  1
  Li  Li127  1  0.00000000  0.50000000  0.00000000  1
  Li  Li128  1  0.50000000  0.50000000  -0.00000000  1
  Li  Li129  1  0.00000000  0.50000000  0.50000000  1
  Li  Li130  1  0.50000000  0.00000000  0.50000000  1
  Li  Li131  1  0.50000000  0.50000000  0.50000000  1
  Li  Li132  1  0.16666667  0.33333333  0.33333333  1
  Li  Li133  1  0.66666667  0.83333333  0.33333333  1
  Li  Li134  1  0.16666667  0.83333333  0.33333333  1
  Li  Li135  1  0.66666667  0.83333333  0.83333333  1
  Li  Li136  1  0.16666667  0.33333333  0.83333333  1
  Li  Li137  1  0.16666667  0.83333333  0.83333333  1
  Li  Li138  1  0.83333333  0.66666667  0.66666667  1
  Li  Li139  1  0.33333333  0.16666667  0.66666667  1
  Li  Li140  1  0.83333333  0.16666667  0.66666667  1
  Li  Li141  1  0.33333333  0.16666667  0.16666667  1
  Li  Li142  1  0.83333333  0.66666667  0.16666667  1
  Li  Li143  1  0.83333333  0.16666667  0.16666667  1
