# generated using pymatgen
data_LiF
_symmetry_space_group_name_H-M   'P 1'
_cell_length_a   5.91595875
_cell_length_b   5.91595875
_cell_length_c   24.66365312
_cell_angle_alpha   90.00000000
_cell_angle_beta   90.00000000
_cell_angle_gamma   120.00000000
_symmetry_Int_Tables_number   1
_chemical_formula_structural   LiF
_chemical_formula_sum   'Li27 F27'
_cell_volume   747.54666769
_cell_formula_units_Z   27
loop_
 _symmetry_equiv_pos_site_id
 _symmetry_equiv_pos_as_xyz
  1  'x, y, z'
loop_
 _atom_site_type_symbol
 _atom_site_label
 _atom_site_symmetry_multiplicity
 _atom_site_fract_x
 _atom_site_fract_y
 _atom_site_fract_z
 _atom_site_occupancy
  F  F0  1  0.00000000  0.00000000  0.50000000  1
  F  F1  1  0.83456189  0.16543811  0.00000000  1
  F  F2  1  0.83456189  0.66912379  0.00000000  1
  F  F3  1  0.33087621  0.16543811  -0.00000000  1
  F  F4  1  0.01099119  0.75284267  0.81014971  1
  F  F5  1  0.24715733  0.25814852  0.81014971  1
  F  F6  1  0.74185148  0.98900881  0.81014971  1
  F  F7  1  0.24715733  0.98900881  0.18985029  1
  F  F8  1  0.74185148  0.75284267  0.18985029  1
  F  F9  1  0.01099119  0.25814852  0.18985029  1
  F  F10  1  0.39304409  0.33634167  0.67501586  1
  F  F11  1  0.66365833  0.05670242  0.67501586  1
  F  F12  1  0.94329758  0.60695591  0.67501586  1
  F  F13  1  0.66365833  0.60695591  0.32498414  1
  F  F14  1  0.94329758  0.33634167  0.32498414  1
  F  F15  1  0.39304409  0.05670242  0.32498414  1
  F  F16  1  0.86187932  0.45105961  0.33262471  1
  F  F17  1  0.54894039  0.41081972  0.33262471  1
  F  F18  1  0.58918028  0.13812068  0.33262471  1
  F  F19  1  0.54894039  0.13812068  0.66737529  1
  F  F20  1  0.58918028  0.45105961  0.66737529  1
  F  F21  1  0.86187932  0.41081972  0.66737529  1
  F  F22  1  0.29140523  0.70859477  0.00000000  1
  F  F23  1  0.29140523  0.58281047  -0.00000000  1
  F  F24  1  0.41718953  0.70859477  0.00000000  1
  F  F25  1  0.33333333  0.66666667  0.71135352  1
  F  F26  1  0.33333333  0.66666667  0.28864648  1
  Li  Li27  1  0.66666667  0.33333333  0.00000000  1
  Li  Li28  1  0.12184687  0.35469622  0.44535196  1
  Li  Li29  1  -0.35469622  -0.23284935  0.44535196  1
  Li  Li30  1  0.23284935  -0.12184687  0.44535196  1
  Li  Li31  1  -0.35469622  -0.12184687  -0.44535196  1
  Li  Li32  1  0.23284935  0.35469622  -0.44535196  1
  Li  Li33  1  0.12184687  -0.23284935  -0.44535196  1
  Li  Li34  1  0.15006584  0.36536500  0.36455610  1
  Li  Li35  1  0.63463500  0.78470084  0.36455610  1
  Li  Li36  1  0.21529916  0.84993416  0.36455610  1
  Li  Li37  1  0.63463500  0.84993416  0.63544390  1
  Li  Li38  1  0.21529916  0.36536500  0.63544390  1
  Li  Li39  1  0.15006584  0.78470084  0.63544390  1
  Li  Li40  1  0.00000000  0.00000000  0.00000000  1
  Li  Li41  1  0.89844691  0.25428338  0.89324741  1
  Li  Li42  1  0.74571662  0.64416354  0.89324741  1
  Li  Li43  1  0.35583646  0.10155309  0.89324741  1
  Li  Li44  1  0.74571662  0.10155309  0.10675259  1
  Li  Li45  1  0.35583646  0.25428338  0.10675259  1
  Li  Li46  1  0.89844691  0.64416354  0.10675259  1
  Li  Li47  1  0.44743383  0.18494812  0.05744348  1
  Li  Li48  1  0.81505188  0.26248571  0.05744348  1
  Li  Li49  1  0.73751429  0.55256617  0.05744348  1
  Li  Li50  1  0.81505188  0.55256617  0.94255652  1
  Li  Li51  1  0.73751429  0.18494812  0.94255652  1
  Li  Li52  1  0.44743383  0.26248571  0.94255652  1
  Li  Li53  1  0.33333333  0.66666667  0.50000000  1
