# generated using pymatgen
data_Li2Y2AsP2
_symmetry_space_group_name_H-M   'P 1'
_cell_length_a   4.26199602
_cell_length_b   4.43358551
_cell_length_c   6.68837380
_cell_angle_alpha   96.02481003
_cell_angle_beta   102.66719250
_cell_angle_gamma   111.99496112
_symmetry_Int_Tables_number   1
_chemical_formula_structural   Li2Y2AsP2
_chemical_formula_sum   'Li2 Y2 As1 P2'
_cell_volume   111.86053892
_cell_formula_units_Z   1
loop_
 _symmetry_equiv_pos_site_id
 _symmetry_equiv_pos_as_xyz
  1  'x, y, z'
loop_
 _atom_site_type_symbol
 _atom_site_label
 _atom_site_symmetry_multiplicity
 _atom_site_fract_x
 _atom_site_fract_y
 _atom_site_fract_z
 _atom_site_occupancy
  P  P0  1  0.00000000  0.00000000  0.00000000  1
  P  P1  1  0.50000000  0.50000000  0.50000000  1
  As  As2  1  0.50000000  0.50000000  0.00000000  1
  Li  Li3  1  0.50000000  0.00000000  0.50000000  1
  Li  Li4  1  0.00000000  0.50000000  0.50000000  1
  Y  Y5  1  0.08766091  0.83713431  0.51492645  1
  Y  Y6  1  0.87714065  0.75438758  0.32094960  1
