# generated using pymatgen
data_LiF
_symmetry_space_group_name_H-M   'P 1'
_cell_length_a   8.23085794
_cell_length_b   8.23085794
_cell_length_c   12.86809657
_cell_angle_alpha   90.00000000
_cell_angle_beta   90.00000000
_cell_angle_gamma   120.00000000
_symmetry_Int_Tables_number   1
_chemical_formula_structural   LiF
_chemical_formula_sum   'Li27 F27'
_cell_volume   754.97949291
_cell_formula_units_Z   27
loop_
 _symmetry_equiv_pos_site_id
 _symmetry_equiv_pos_as_xyz
  1  'x, y, z'
loop_
 _atom_site_type_symbol
 _atom_site_label
 _atom_site_symmetry_multiplicity
 _atom_site_fract_x
 _atom_site_fract_y
 _atom_site_fract_z
 _atom_site_occupancy
  F  F0  1  0.00000000  0.00000000  0.00000000  1
  F  F1  1  0.75852230  0.22286676  0.28848865  1
  F  F2  1  0.77713324  0.53565553  0.28848865  1
  F  F3  1  0.46434447  0.24147770  0.28848865  1
  F  F4  1  0.77713324  0.24147770  0.71151135  1
  F  F5  1  0.46434447  0.22286676  0.71151135  1
  F  F6  1  0.75852230  0.53565553  0.71151135  1
  F  F7  1  0.00000000  0.00000000  0.50000000  1
  F  F8  1  0.49773071  0.45163932  0.63671657  1
  F  F9  1  0.54836068  0.04609140  0.63671657  1
  F  F10  1  0.95390860  0.50226929  0.63671657  1
  F  F11  1  0.54836068  0.50226929  0.36328343  1
  F  F12  1  0.95390860  0.45163932  0.36328343  1
  F  F13  1  0.49773071  0.04609140  0.36328343  1
  F  F14  1  0.44118920  0.12995936  0.42370810  1
  F  F15  1  0.87004064  0.31122984  0.42370810  1
  F  F16  1  0.68877016  0.55881080  0.42370810  1
  F  F17  1  0.87004064  0.55881080  0.57629190  1
  F  F18  1  0.68877016  0.12995936  0.57629190  1
  F  F19  1  0.44118920  0.31122984  0.57629190  1
  F  F20  1  0.82362484  0.39155800  0.35137122  1
  F  F21  1  0.60844200  0.43206683  0.35137122  1
  F  F22  1  0.56793317  0.17637516  0.35137122  1
  F  F23  1  0.60844200  0.17637516  0.64862878  1
  F  F24  1  0.56793317  0.39155800  0.64862878  1
  F  F25  1  0.82362484  0.43206683  0.64862878  1
  F  F26  1  0.33333333  0.66666667  0.50000000  1
  Li  Li27  1  0.00000000  0.00000000  0.60691885  1
  Li  Li28  1  0.00000000  0.00000000  0.39308115  1
  Li  Li29  1  0.48893473  0.37894361  0.27859019  1
  Li  Li30  1  -0.37894361  0.10999111  0.27859019  1
  Li  Li31  1  -0.10999111  -0.48893473  0.27859019  1
  Li  Li32  1  -0.37894361  -0.48893473  -0.27859019  1
  Li  Li33  1  -0.10999111  0.37894361  -0.27859019  1
  Li  Li34  1  0.48893473  0.10999111  -0.27859019  1
  Li  Li35  1  0.33333333  0.66666667  0.65608541  1
  Li  Li36  1  0.33333333  0.66666667  0.34391459  1
  Li  Li37  1  0.39004842  0.06256788  0.14241264  1
  Li  Li38  1  0.93743212  0.32748053  0.14241264  1
  Li  Li39  1  0.67251947  0.60995158  0.14241264  1
  Li  Li40  1  0.93743212  0.60995158  0.85758736  1
  Li  Li41  1  0.67251947  0.06256788  0.85758736  1
  Li  Li42  1  0.39004842  0.32748053  0.85758736  1
  Li  Li43  1  0.42189676  0.93378335  0.65752914  1
  Li  Li44  1  0.06621665  0.48811341  0.65752914  1
  Li  Li45  1  0.51188659  0.57810324  0.65752914  1
  Li  Li46  1  0.06621665  0.57810324  0.34247086  1
  Li  Li47  1  0.51188659  0.93378335  0.34247086  1
  Li  Li48  1  0.42189676  0.48811341  0.34247086  1
  Li  Li49  1  0.66666667  0.33333333  0.36110241  1
  Li  Li50  1  0.66666667  0.33333333  0.63889759  1
  Li  Li51  1  0.77637766  0.22362234  0.00000000  1
  Li  Li52  1  0.77637766  0.55275531  -0.00000000  1
  Li  Li53  1  0.44724469  0.22362234  -0.00000000  1
