# generated using pymatgen
data_LiF
_symmetry_space_group_name_H-M   'P 1'
_cell_length_a   12.63985977
_cell_length_b   17.01498067
_cell_length_c   7.25006078
_cell_angle_alpha   90.00000000
_cell_angle_beta   90.00000000
_cell_angle_gamma   90.00000000
_symmetry_Int_Tables_number   1
_chemical_formula_structural   LiF
_chemical_formula_sum   'Li58 F58'
_cell_volume   1559.24860186
_cell_formula_units_Z   58
loop_
 _symmetry_equiv_pos_site_id
 _symmetry_equiv_pos_as_xyz
  1  'x, y, z'
loop_
 _atom_site_type_symbol
 _atom_site_label
 _atom_site_symmetry_multiplicity
 _atom_site_fract_x
 _atom_site_fract_y
 _atom_site_fract_z
 _atom_site_occupancy
  F  F0  1  0.38534405  0.92523653  0.04221045  1
  F  F1  1  0.61465595  0.07476347  0.04221045  1
  F  F2  1  0.11465595  0.42523653  0.95778955  1
  F  F3  1  0.88534405  0.57476347  0.95778955  1
  F  F4  1  0.61465595  0.07476347  0.95778955  1
  F  F5  1  0.38534405  0.92523653  0.95778955  1
  F  F6  1  0.88534405  0.57476347  0.04221045  1
  F  F7  1  0.11465595  0.42523653  0.04221045  1
  F  F8  1  0.46012413  0.20808639  0.72770699  1
  F  F9  1  0.53987587  0.79191361  0.72770699  1
  F  F10  1  0.03987587  0.70808639  0.27229301  1
  F  F11  1  0.96012413  0.29191361  0.27229301  1
  F  F12  1  0.53987587  0.79191361  0.27229301  1
  F  F13  1  0.46012413  0.20808639  0.27229301  1
  F  F14  1  0.96012413  0.29191361  0.72770699  1
  F  F15  1  0.03987587  0.70808639  0.72770699  1
  F  F16  1  0.67686373  0.49278546  0.00000000  1
  F  F17  1  0.32313627  0.50721454  0.00000000  1
  F  F18  1  0.82313627  0.99278546  0.00000000  1
  F  F19  1  0.17686373  0.00721454  0.00000000  1
  F  F20  1  0.08192134  0.06955643  0.13344367  1
  F  F21  1  0.91807866  0.93044357  0.13344367  1
  F  F22  1  0.41807866  0.56955643  0.86655633  1
  F  F23  1  0.58192134  0.43044357  0.86655633  1
  F  F24  1  0.91807866  0.93044357  0.86655633  1
  F  F25  1  0.08192134  0.06955643  0.86655633  1
  F  F26  1  0.58192134  0.43044357  0.13344367  1
  F  F27  1  0.41807866  0.56955643  0.13344367  1
  F  F28  1  0.36384457  0.36199836  0.19666799  1
  F  F29  1  0.63615543  0.63800164  0.19666799  1
  F  F30  1  0.13615543  0.86199836  0.80333201  1
  F  F31  1  0.86384457  0.13800164  0.80333201  1
  F  F32  1  0.63615543  0.63800164  0.80333201  1
  F  F33  1  0.36384457  0.36199836  0.80333201  1
  F  F34  1  0.86384457  0.13800164  0.19666799  1
  F  F35  1  0.13615543  0.86199836  0.19666799  1
  F  F36  1  0.23910316  0.17121435  0.10342643  1
  F  F37  1  0.76089684  0.82878565  0.10342643  1
  F  F38  1  0.26089684  0.67121435  0.89657357  1
  F  F39  1  0.73910316  0.32878565  0.89657357  1
  F  F40  1  0.76089684  0.82878565  0.89657357  1
  F  F41  1  0.23910316  0.17121435  0.89657357  1
  F  F42  1  0.73910316  0.32878565  0.10342643  1
  F  F43  1  0.26089684  0.67121435  0.10342643  1
  F  F44  1  0.59781176  0.09103382  0.73350369  1
  F  F45  1  0.40218824  0.90896618  0.73350369  1
  F  F46  1  0.90218824  0.59103382  0.26649631  1
  F  F47  1  0.09781176  0.40896618  0.26649631  1
  F  F48  1  0.40218824  0.90896618  0.26649631  1
  F  F49  1  0.59781176  0.09103382  0.26649631  1
  F  F50  1  0.09781176  0.40896618  0.73350369  1
  F  F51  1  0.90218824  0.59103382  0.73350369  1
  F  F52  1  0.00000000  0.00000000  0.50000000  1
  F  F53  1  0.50000000  0.50000000  0.50000000  1
  F  F54  1  0.70007482  0.74723518  0.50000000  1
  F  F55  1  0.29992518  0.25276482  0.50000000  1
  F  F56  1  0.79992518  0.24723518  0.50000000  1
  F  F57  1  0.20007482  0.75276482  0.50000000  1
  Li  Li58  1  0.36041650  0.58139842  0.65776997  1
  Li  Li59  1  -0.36041650  -0.58139842  0.65776997  1
  Li  Li60  1  0.13958350  1.08139842  -0.65776997  1
  Li  Li61  1  0.86041650  -0.08139842  -0.65776997  1
  Li  Li62  1  -0.36041650  -0.58139842  -0.65776997  1
  Li  Li63  1  0.36041650  0.58139842  -0.65776997  1
  Li  Li64  1  0.86041650  -0.08139842  0.65776997  1
  Li  Li65  1  0.13958350  1.08139842  0.65776997  1
  Li  Li66  1  0.00000000  0.50000000  0.75439052  1
  Li  Li67  1  0.50000000  0.00000000  0.24560948  1
  Li  Li68  1  0.00000000  0.50000000  0.24560948  1
  Li  Li69  1  0.50000000  0.00000000  0.75439052  1
  Li  Li70  1  0.00000000  0.50000000  0.50000000  1
  Li  Li71  1  0.50000000  0.00000000  0.50000000  1
  Li  Li72  1  0.00000000  0.50000000  0.00000000  1
  Li  Li73  1  0.50000000  0.00000000  0.00000000  1
  Li  Li74  1  0.44563292  0.78010943  0.00000000  1
  Li  Li75  1  0.55436708  0.21989057  0.00000000  1
  Li  Li76  1  0.05436708  0.28010943  0.00000000  1
  Li  Li77  1  0.94563292  0.71989057  0.00000000  1
  Li  Li78  1  0.85950312  0.41980270  0.12604728  1
  Li  Li79  1  0.14049688  0.58019730  0.12604728  1
  Li  Li80  1  0.64049688  0.91980270  0.87395272  1
  Li  Li81  1  0.35950312  0.08019730  0.87395272  1
  Li  Li82  1  0.14049688  0.58019730  0.87395272  1
  Li  Li83  1  0.85950312  0.41980270  0.87395272  1
  Li  Li84  1  0.35950312  0.08019730  0.12604728  1
  Li  Li85  1  0.64049688  0.91980270  0.12604728  1
  Li  Li86  1  0.00000000  0.00000000  0.00000000  1
  Li  Li87  1  0.50000000  0.50000000  0.00000000  1
  Li  Li88  1  0.18866269  0.81285260  0.50000000  1
  Li  Li89  1  0.81133731  0.18714740  0.50000000  1
  Li  Li90  1  0.31133731  0.31285260  0.50000000  1
  Li  Li91  1  0.68866269  0.68714740  0.50000000  1
  Li  Li92  1  0.43446178  0.69492373  0.50000000  1
  Li  Li93  1  0.56553822  0.30507627  0.50000000  1
  Li  Li94  1  0.06553822  0.19492373  0.50000000  1
  Li  Li95  1  0.93446178  0.80507627  0.50000000  1
  Li  Li96  1  0.98381673  0.80361703  0.00000000  1
  Li  Li97  1  0.01618327  0.19638297  0.00000000  1
  Li  Li98  1  0.51618327  0.30361703  0.00000000  1
  Li  Li99  1  0.48381673  0.69638297  0.00000000  1
  Li  Li100  1  0.00000000  0.00000000  0.81663598  1
  Li  Li101  1  0.50000000  0.50000000  0.18336402  1
  Li  Li102  1  0.00000000  0.00000000  0.18336402  1
  Li  Li103  1  0.50000000  0.50000000  0.81663598  1
  Li  Li104  1  0.69672860  0.71713968  0.22570780  1
  Li  Li105  1  0.30327140  0.28286032  0.22570780  1
  Li  Li106  1  0.80327140  0.21713968  0.77429220  1
  Li  Li107  1  0.19672860  0.78286032  0.77429220  1
  Li  Li108  1  0.30327140  0.28286032  0.77429220  1
  Li  Li109  1  0.69672860  0.71713968  0.77429220  1
  Li  Li110  1  0.19672860  0.78286032  0.22570780  1
  Li  Li111  1  0.80327140  0.21713968  0.22570780  1
  Li  Li112  1  0.94972509  0.30035727  0.50000000  1
  Li  Li113  1  0.05027491  0.69964273  0.50000000  1
  Li  Li114  1  0.55027491  0.80035727  0.50000000  1
  Li  Li115  1  0.44972509  0.19964273  0.50000000  1
