# generated using pymatgen
data_LiF
_symmetry_space_group_name_H-M   'P 1'
_cell_length_a   8.61489408
_cell_length_b   7.48320405
_cell_length_c   7.01552659
_cell_angle_alpha   90.00000000
_cell_angle_beta   90.00000000
_cell_angle_gamma   90.00000000
_symmetry_Int_Tables_number   1
_chemical_formula_structural   LiF
_chemical_formula_sum   'Li24 F24'
_cell_volume   452.27002458
_cell_formula_units_Z   24
loop_
 _symmetry_equiv_pos_site_id
 _symmetry_equiv_pos_as_xyz
  1  'x, y, z'
loop_
 _atom_site_type_symbol
 _atom_site_label
 _atom_site_symmetry_multiplicity
 _atom_site_fract_x
 _atom_site_fract_y
 _atom_site_fract_z
 _atom_site_occupancy
  F  F0  1  0.42941096  0.41686045  0.60245838  1
  F  F1  1  0.07058904  0.58313955  0.10245838  1
  F  F2  1  0.57058904  0.91686045  0.39754162  1
  F  F3  1  0.92941096  0.08313955  0.89754162  1
  F  F4  1  0.57058904  0.58313955  0.39754162  1
  F  F5  1  0.92941096  0.41686045  0.89754162  1
  F  F6  1  0.42941096  0.08313955  0.60245838  1
  F  F7  1  0.07058904  0.91686045  0.10245838  1
  F  F8  1  0.32291819  0.30003137  0.39494936  1
  F  F9  1  0.17708181  0.69996863  0.89494936  1
  F  F10  1  0.67708181  0.80003137  0.60505064  1
  F  F11  1  0.82291819  0.19996863  0.10505064  1
  F  F12  1  0.67708181  0.69996863  0.60505064  1
  F  F13  1  0.82291819  0.30003137  0.10505064  1
  F  F14  1  0.32291819  0.19996863  0.39494936  1
  F  F15  1  0.17708181  0.80003137  0.89494936  1
  F  F16  1  0.29411501  0.64745013  0.72080948  1
  F  F17  1  0.20588499  0.35254987  0.22080948  1
  F  F18  1  0.70588499  0.14745013  0.27919052  1
  F  F19  1  0.79411501  0.85254987  0.77919052  1
  F  F20  1  0.70588499  0.35254987  0.27919052  1
  F  F21  1  0.79411501  0.64745013  0.77919052  1
  F  F22  1  0.29411501  0.85254987  0.72080948  1
  F  F23  1  0.20588499  0.14745013  0.22080948  1
  Li  Li24  1  0.78162281  0.42914707  0.22268220  1
  Li  Li25  1  -0.28162281  -0.42914707  0.72268220  1
  Li  Li26  1  -0.78162281  0.92914707  -0.22268220  1
  Li  Li27  1  1.28162281  0.07085293  0.27731780  1
  Li  Li28  1  -0.78162281  -0.42914707  -0.22268220  1
  Li  Li29  1  1.28162281  0.42914707  0.27731780  1
  Li  Li30  1  0.78162281  0.07085293  0.22268220  1
  Li  Li31  1  -0.28162281  0.92914707  0.72268220  1
  Li  Li32  1  0.90190257  0.98956245  0.06249007  1
  Li  Li33  1  0.59809743  0.01043755  0.56249007  1
  Li  Li34  1  0.09809743  0.48956245  0.93750993  1
  Li  Li35  1  0.40190257  0.51043755  0.43750993  1
  Li  Li36  1  0.09809743  0.01043755  0.93750993  1
  Li  Li37  1  0.40190257  0.98956245  0.43750993  1
  Li  Li38  1  0.90190257  0.51043755  0.06249007  1
  Li  Li39  1  0.59809743  0.48956245  0.56249007  1
  Li  Li40  1  0.81870139  0.25000000  0.56855199  1
  Li  Li41  1  0.68129861  0.75000000  0.06855199  1
  Li  Li42  1  0.18129861  0.75000000  0.43144801  1
  Li  Li43  1  0.31870139  0.25000000  0.93144801  1
  Li  Li44  1  0.01732654  0.25000000  0.97063083  1
  Li  Li45  1  0.48267346  0.75000000  0.47063083  1
  Li  Li46  1  0.98267346  0.75000000  0.02936917  1
  Li  Li47  1  0.51732654  0.25000000  0.52936917  1
