# generated using pymatgen
data_LiF
_symmetry_space_group_name_H-M   'P 1'
_cell_length_a   7.92916645
_cell_length_b   11.61527435
_cell_length_c   9.05164814
_cell_angle_alpha   90.00000000
_cell_angle_beta   90.00000000
_cell_angle_gamma   90.00000000
_symmetry_Int_Tables_number   1
_chemical_formula_structural   LiF
_chemical_formula_sum   'Li28 F28'
_cell_volume   833.65175744
_cell_formula_units_Z   28
loop_
 _symmetry_equiv_pos_site_id
 _symmetry_equiv_pos_as_xyz
  1  'x, y, z'
loop_
 _atom_site_type_symbol
 _atom_site_label
 _atom_site_symmetry_multiplicity
 _atom_site_fract_x
 _atom_site_fract_y
 _atom_site_fract_z
 _atom_site_occupancy
  F  F0  1  0.80704878  0.51556978  0.35083970  1
  F  F1  1  0.69295122  0.48443022  0.85083970  1
  F  F2  1  0.19295122  0.01556978  0.64916030  1
  F  F3  1  0.30704878  0.98443022  0.14916030  1
  F  F4  1  0.19295122  0.48443022  0.64916030  1
  F  F5  1  0.30704878  0.51556978  0.14916030  1
  F  F6  1  0.80704878  0.98443022  0.35083970  1
  F  F7  1  0.69295122  0.01556978  0.85083970  1
  F  F8  1  0.85458821  0.27862814  0.82099720  1
  F  F9  1  0.64541179  0.72137186  0.32099720  1
  F  F10  1  0.14541179  0.77862814  0.17900280  1
  F  F11  1  0.35458821  0.22137186  0.67900280  1
  F  F12  1  0.14541179  0.72137186  0.17900280  1
  F  F13  1  0.35458821  0.27862814  0.67900280  1
  F  F14  1  0.85458821  0.22137186  0.82099720  1
  F  F15  1  0.64541179  0.77862814  0.32099720  1
  F  F16  1  0.19337141  0.69502834  0.32982682  1
  F  F17  1  0.30662859  0.30497166  0.82982682  1
  F  F18  1  0.80662859  0.19502834  0.67017318  1
  F  F19  1  0.69337141  0.80497166  0.17017318  1
  F  F20  1  0.80662859  0.30497166  0.67017318  1
  F  F21  1  0.69337141  0.69502834  0.17017318  1
  F  F22  1  0.19337141  0.80497166  0.32982682  1
  F  F23  1  0.30662859  0.19502834  0.82982682  1
  F  F24  1  0.00000000  0.00000000  0.50000000  1
  F  F25  1  0.50000000  0.00000000  0.00000000  1
  F  F26  1  0.00000000  0.50000000  0.50000000  1
  F  F27  1  0.50000000  0.50000000  0.00000000  1
  Li  Li28  1  0.48475538  0.82690346  0.22186608  1
  Li  Li29  1  0.01524462  -0.82690346  0.72186608  1
  Li  Li30  1  -0.48475538  1.32690346  -0.22186608  1
  Li  Li31  1  0.98475538  -0.32690346  0.27813392  1
  Li  Li32  1  -0.48475538  -0.82690346  -0.22186608  1
  Li  Li33  1  0.98475538  0.82690346  0.27813392  1
  Li  Li34  1  0.48475538  -0.32690346  0.22186608  1
  Li  Li35  1  0.01524462  1.32690346  0.72186608  1
  Li  Li36  1  0.00000000  0.00000000  0.00000000  1
  Li  Li37  1  0.50000000  0.00000000  0.50000000  1
  Li  Li38  1  0.00000000  0.50000000  0.00000000  1
  Li  Li39  1  0.50000000  0.50000000  0.50000000  1
  Li  Li40  1  0.67741372  0.13189409  0.58201548  1
  Li  Li41  1  0.82258628  0.86810591  0.08201548  1
  Li  Li42  1  0.32258628  0.63189409  0.41798452  1
  Li  Li43  1  0.17741372  0.36810591  0.91798452  1
  Li  Li44  1  0.32258628  0.86810591  0.41798452  1
  Li  Li45  1  0.17741372  0.13189409  0.91798452  1
  Li  Li46  1  0.67741372  0.36810591  0.58201548  1
  Li  Li47  1  0.82258628  0.63189409  0.08201548  1
  Li  Li48  1  0.33969395  0.44943445  0.63581076  1
  Li  Li49  1  0.16030605  0.55056555  0.13581076  1
  Li  Li50  1  0.66030605  0.94943445  0.36418924  1
  Li  Li51  1  0.83969395  0.05056555  0.86418924  1
  Li  Li52  1  0.66030605  0.55056555  0.36418924  1
  Li  Li53  1  0.83969395  0.44943445  0.86418924  1
  Li  Li54  1  0.33969395  0.05056555  0.63581076  1
  Li  Li55  1  0.16030605  0.94943445  0.13581076  1
