# generated using pymatgen
data_LiF
_symmetry_space_group_name_H-M   'P 1'
_cell_length_a   7.96152371
_cell_length_b   6.43830423
_cell_length_c   12.55911456
_cell_angle_alpha   90.00000000
_cell_angle_beta   90.00000000
_cell_angle_gamma   90.00000000
_symmetry_Int_Tables_number   1
_chemical_formula_structural   LiF
_chemical_formula_sum   'Li24 F24'
_cell_volume   643.76403384
_cell_formula_units_Z   24
loop_
 _symmetry_equiv_pos_site_id
 _symmetry_equiv_pos_as_xyz
  1  'x, y, z'
loop_
 _atom_site_type_symbol
 _atom_site_label
 _atom_site_symmetry_multiplicity
 _atom_site_fract_x
 _atom_site_fract_y
 _atom_site_fract_z
 _atom_site_occupancy
  F  F0  1  0.54043001  0.30651476  0.81564896  1
  F  F1  1  0.95956999  0.69348524  0.31564896  1
  F  F2  1  0.45956999  0.80651476  0.18435104  1
  F  F3  1  0.04043001  0.19348524  0.68435104  1
  F  F4  1  0.45956999  0.69348524  0.18435104  1
  F  F5  1  0.04043001  0.30651476  0.68435104  1
  F  F6  1  0.54043001  0.19348524  0.81564896  1
  F  F7  1  0.95956999  0.80651476  0.31564896  1
  F  F8  1  0.88494946  0.91816887  0.38708106  1
  F  F9  1  0.61505054  0.08183113  0.88708106  1
  F  F10  1  0.11505054  0.41816887  0.61291894  1
  F  F11  1  0.38494946  0.58183113  0.11291894  1
  F  F12  1  0.11505054  0.08183113  0.61291894  1
  F  F13  1  0.38494946  0.91816887  0.11291894  1
  F  F14  1  0.88494946  0.58183113  0.38708106  1
  F  F15  1  0.61505054  0.41816887  0.88708106  1
  F  F16  1  0.55346651  0.61876147  0.86795941  1
  F  F17  1  0.94653349  0.38123853  0.36795941  1
  F  F18  1  0.44653349  0.11876147  0.13204059  1
  F  F19  1  0.05346651  0.88123853  0.63204059  1
  F  F20  1  0.44653349  0.38123853  0.13204059  1
  F  F21  1  0.05346651  0.61876147  0.63204059  1
  F  F22  1  0.55346651  0.88123853  0.86795941  1
  F  F23  1  0.94653349  0.11876147  0.36795941  1
  Li  Li24  1  0.39937996  0.25000000  0.97160322  1
  Li  Li25  1  0.10062004  0.75000000  0.47160322  1
  Li  Li26  1  0.60062004  0.75000000  0.02839678  1
  Li  Li27  1  0.89937996  0.25000000  0.52839678  1
  Li  Li28  1  0.88683425  0.09550246  0.83831014  1
  Li  Li29  1  -0.38683425  -0.09550246  1.33831014  1
  Li  Li30  1  -0.88683425  0.59550246  -0.83831014  1
  Li  Li31  1  1.38683425  0.40449754  -0.33831014  1
  Li  Li32  1  -0.88683425  -0.09550246  -0.83831014  1
  Li  Li33  1  1.38683425  0.09550246  -0.33831014  1
  Li  Li34  1  0.88683425  0.40449754  0.83831014  1
  Li  Li35  1  -0.38683425  0.59550246  1.33831014  1
  Li  Li36  1  0.50936791  0.38848723  0.59190233  1
  Li  Li37  1  0.99063209  0.61151277  0.09190233  1
  Li  Li38  1  0.49063209  0.88848723  0.40809767  1
  Li  Li39  1  0.00936791  0.11151277  0.90809767  1
  Li  Li40  1  0.49063209  0.61151277  0.40809767  1
  Li  Li41  1  0.00936791  0.38848723  0.90809767  1
  Li  Li42  1  0.50936791  0.11151277  0.59190233  1
  Li  Li43  1  0.99063209  0.88848723  0.09190233  1
  Li  Li44  1  0.00000000  0.00000000  0.00000000  1
  Li  Li45  1  0.50000000  0.00000000  0.50000000  1
  Li  Li46  1  0.00000000  0.50000000  0.00000000  1
  Li  Li47  1  0.50000000  0.50000000  0.50000000  1
