# generated using pymatgen
data_Li2YAs2(PPb)2
_symmetry_space_group_name_H-M   'P 1'
_cell_length_a   5.71176776
_cell_length_b   5.73231805
_cell_length_c   7.39841620
_cell_angle_alpha   94.79873890
_cell_angle_beta   99.67724393
_cell_angle_gamma   105.51609643
_symmetry_Int_Tables_number   1
_chemical_formula_structural   Li2YAs2(PPb)2
_chemical_formula_sum   'Li2 Y1 As2 P2 Pb2'
_cell_volume   227.96758941
_cell_formula_units_Z   1
loop_
 _symmetry_equiv_pos_site_id
 _symmetry_equiv_pos_as_xyz
  1  'x, y, z'
loop_
 _atom_site_type_symbol
 _atom_site_label
 _atom_site_symmetry_multiplicity
 _atom_site_fract_x
 _atom_site_fract_y
 _atom_site_fract_z
 _atom_site_occupancy
  Pb  Pb0  1  0.12500000  0.00000000  0.25000000  1
  Pb  Pb1  1  0.00000000  0.00000000  0.00000000  1
  Y  Y2  1  0.37500000  0.00000000  0.25000000  1
  P  P3  1  0.25000000  0.25000000  0.25000000  1
  P  P4  1  0.00000000  0.25000000  0.12500000  1
  As  As5  1  0.52908261  0.49518155  0.32440327  1
  As  As6  1  0.25558106  0.71259183  0.62167186  1
  Li  Li7  1  0.16747649  0.56651898  0.00331016  1
  Li  Li8  1  0.52217374  0.25804858  0.60355352  1
