# generated using pymatgen
data_LiF
_symmetry_space_group_name_H-M   'P 1'
_cell_length_a   9.03614891
_cell_length_b   10.52815501
_cell_length_c   4.51946555
_cell_angle_alpha   90.00000000
_cell_angle_beta   90.00000000
_cell_angle_gamma   90.00000000
_symmetry_Int_Tables_number   1
_chemical_formula_structural   LiF
_chemical_formula_sum   'Li24 F24'
_cell_volume   429.95472928
_cell_formula_units_Z   24
loop_
 _symmetry_equiv_pos_site_id
 _symmetry_equiv_pos_as_xyz
  1  'x, y, z'
loop_
 _atom_site_type_symbol
 _atom_site_label
 _atom_site_symmetry_multiplicity
 _atom_site_fract_x
 _atom_site_fract_y
 _atom_site_fract_z
 _atom_site_occupancy
  F  F0  1  0.35829414  0.68376213  0.93915874  1
  F  F1  1  0.14170586  0.31623787  0.43915874  1
  F  F2  1  0.64170586  0.18376213  0.06084126  1
  F  F3  1  0.85829414  0.81623787  0.56084126  1
  F  F4  1  0.64170586  0.31623787  0.06084126  1
  F  F5  1  0.85829414  0.68376213  0.56084126  1
  F  F6  1  0.35829414  0.81623787  0.93915874  1
  F  F7  1  0.14170586  0.18376213  0.43915874  1
  F  F8  1  0.00842224  0.32458357  0.20967455  1
  F  F9  1  0.49157776  0.67541643  0.70967455  1
  F  F10  1  0.99157776  0.82458357  0.79032545  1
  F  F11  1  0.50842224  0.17541643  0.29032545  1
  F  F12  1  0.99157776  0.67541643  0.79032545  1
  F  F13  1  0.50842224  0.32458357  0.29032545  1
  F  F14  1  0.00842224  0.17541643  0.20967455  1
  F  F15  1  0.49157776  0.82458357  0.70967455  1
  F  F16  1  0.60409317  0.40353097  0.01368079  1
  F  F17  1  0.89590683  0.59646903  0.51368079  1
  F  F18  1  0.39590683  0.90353097  0.98631921  1
  F  F19  1  0.10409317  0.09646903  0.48631921  1
  F  F20  1  0.39590683  0.59646903  0.98631921  1
  F  F21  1  0.10409317  0.40353097  0.48631921  1
  F  F22  1  0.60409317  0.09646903  0.01368079  1
  F  F23  1  0.89590683  0.90353097  0.51368079  1
  Li  Li24  1  0.00615544  0.87515452  0.11168905  1
  Li  Li25  1  0.49384456  -0.87515452  0.61168905  1
  Li  Li26  1  -0.00615544  1.37515452  -0.11168905  1
  Li  Li27  1  0.50615544  -0.37515452  0.38831095  1
  Li  Li28  1  -0.00615544  -0.87515452  -0.11168905  1
  Li  Li29  1  0.50615544  0.87515452  0.38831095  1
  Li  Li30  1  0.00615544  -0.37515452  0.11168905  1
  Li  Li31  1  0.49384456  1.37515452  0.61168905  1
  Li  Li32  1  0.82888883  0.36829052  0.23086909  1
  Li  Li33  1  0.67111117  0.63170948  0.73086909  1
  Li  Li34  1  0.17111117  0.86829052  0.76913091  1
  Li  Li35  1  0.32888883  0.13170948  0.26913091  1
  Li  Li36  1  0.17111117  0.63170948  0.76913091  1
  Li  Li37  1  0.32888883  0.36829052  0.26913091  1
  Li  Li38  1  0.82888883  0.13170948  0.23086909  1
  Li  Li39  1  0.67111117  0.86829052  0.73086909  1
  Li  Li40  1  0.00000000  0.00000000  0.50000000  1
  Li  Li41  1  0.50000000  -0.00000000  0.00000000  1
  Li  Li42  1  0.00000000  0.50000000  0.50000000  1
  Li  Li43  1  0.50000000  0.50000000  0.00000000  1
  Li  Li44  1  0.00000000  0.00000000  0.00000000  1
  Li  Li45  1  0.50000000  -0.00000000  0.50000000  1
  Li  Li46  1  0.00000000  0.50000000  0.00000000  1
  Li  Li47  1  0.50000000  0.50000000  0.50000000  1
