# generated using pymatgen
data_LiF
_symmetry_space_group_name_H-M   'P 1'
_cell_length_a   11.00663343
_cell_length_b   11.00663343
_cell_length_c   10.22420053
_cell_angle_alpha   90.00000000
_cell_angle_beta   90.00000000
_cell_angle_gamma   120.00000000
_symmetry_Int_Tables_number   1
_chemical_formula_structural   LiF
_chemical_formula_sum   'Li36 F36'
_cell_volume   1072.67706730
_cell_formula_units_Z   36
loop_
 _symmetry_equiv_pos_site_id
 _symmetry_equiv_pos_as_xyz
  1  'x, y, z'
loop_
 _atom_site_type_symbol
 _atom_site_label
 _atom_site_symmetry_multiplicity
 _atom_site_fract_x
 _atom_site_fract_y
 _atom_site_fract_z
 _atom_site_occupancy
  F  F0  1  0.33333333  0.66666667  0.60360426  1
  F  F1  1  0.66666667  0.33333333  0.10360426  1
  F  F2  1  0.66666667  0.33333333  0.39639574  1
  F  F3  1  0.33333333  0.66666667  0.89639574  1
  F  F4  1  0.24436912  0.29120113  0.28492551  1
  F  F5  1  -0.29120113  -0.04683201  0.28492551  1
  F  F6  1  0.04683201  -0.24436912  0.28492551  1
  F  F7  1  -0.24436912  -0.29120113  0.78492551  1
  F  F8  1  0.29120113  0.04683201  0.78492551  1
  F  F9  1  -0.04683201  0.24436912  0.78492551  1
  F  F10  1  -0.24436912  -0.29120113  -0.28492551  1
  F  F11  1  0.29120113  0.04683201  -0.28492551  1
  F  F12  1  -0.04683201  0.24436912  -0.28492551  1
  F  F13  1  0.24436912  0.29120113  0.21507449  1
  F  F14  1  -0.29120113  -0.04683201  0.21507449  1
  F  F15  1  0.04683201  -0.24436912  0.21507449  1
  F  F16  1  0.68062332  0.22607569  0.31538736  1
  F  F17  1  0.77392431  0.45454763  0.31538736  1
  F  F18  1  0.54545237  0.31937668  0.31538736  1
  F  F19  1  0.31937668  0.77392431  0.81538736  1
  F  F20  1  0.22607569  0.54545237  0.81538736  1
  F  F21  1  0.45454763  0.68062332  0.81538736  1
  F  F22  1  0.31937668  0.77392431  0.68461264  1
  F  F23  1  0.22607569  0.54545237  0.68461264  1
  F  F24  1  0.45454763  0.68062332  0.68461264  1
  F  F25  1  0.68062332  0.22607569  0.18461264  1
  F  F26  1  0.77392431  0.45454763  0.18461264  1
  F  F27  1  0.54545237  0.31937668  0.18461264  1
  F  F28  1  0.50000000  0.00000000  0.00000000  1
  F  F29  1  0.00000000  0.50000000  0.00000000  1
  F  F30  1  0.50000000  0.50000000  0.00000000  1
  F  F31  1  0.50000000  0.00000000  0.50000000  1
  F  F32  1  0.00000000  0.50000000  0.50000000  1
  F  F33  1  0.50000000  0.50000000  0.50000000  1
  F  F34  1  0.33333333  0.66666667  0.25000000  1
  F  F35  1  0.66666667  0.33333333  0.75000000  1
  Li  Li36  1  0.98136677  0.91117805  0.32311309  1
  Li  Li37  1  0.08882195  0.07018872  0.32311309  1
  Li  Li38  1  0.92981128  0.01863323  0.32311309  1
  Li  Li39  1  0.01863323  0.08882195  0.82311309  1
  Li  Li40  1  0.91117805  0.92981128  0.82311309  1
  Li  Li41  1  0.07018872  0.98136677  0.82311309  1
  Li  Li42  1  0.01863323  0.08882195  0.67688691  1
  Li  Li43  1  0.91117805  0.92981128  0.67688691  1
  Li  Li44  1  0.07018872  0.98136677  0.67688691  1
  Li  Li45  1  0.98136677  0.91117805  0.17688691  1
  Li  Li46  1  0.08882195  0.07018872  0.17688691  1
  Li  Li47  1  0.92981128  0.01863323  0.17688691  1
  Li  Li48  1  0.00000000  0.00000000  0.93476270  1
  Li  Li49  1  0.00000000  0.00000000  0.43476270  1
  Li  Li50  1  0.00000000  0.00000000  0.06523730  1
  Li  Li51  1  0.00000000  0.00000000  0.56523730  1
  Li  Li52  1  0.88541840  0.68355613  0.25000000  1
  Li  Li53  1  0.31644387  0.20186227  0.25000000  1
  Li  Li54  1  0.79813773  0.11458160  0.25000000  1
  Li  Li55  1  0.11458160  0.31644387  0.75000000  1
  Li  Li56  1  0.68355613  0.79813773  0.75000000  1
  Li  Li57  1  0.20186227  0.88541840  0.75000000  1
  Li  Li58  1  0.51999646  0.09574377  0.55478132  1
  Li  Li59  1  0.90425623  0.42425269  0.55478132  1
  Li  Li60  1  0.57574731  0.48000354  0.55478132  1
  Li  Li61  1  0.48000354  0.90425623  0.05478132  1
  Li  Li62  1  0.09574377  0.57574731  0.05478132  1
  Li  Li63  1  0.42425269  0.51999646  0.05478132  1
  Li  Li64  1  0.48000354  0.90425623  0.44521868  1
  Li  Li65  1  0.09574377  0.57574731  0.44521868  1
  Li  Li66  1  0.42425269  0.51999646  0.44521868  1
  Li  Li67  1  0.51999646  0.09574377  0.94521868  1
  Li  Li68  1  0.90425623  0.42425269  0.94521868  1
  Li  Li69  1  0.57574731  0.48000354  0.94521868  1
  Li  Li70  1  0.66666667  0.33333333  0.25000000  1
  Li  Li71  1  0.33333333  0.66666667  0.75000000  1
