# generated using pymatgen
data_LiY2Te4MoP3
_symmetry_space_group_name_H-M   'P 1'
_cell_length_a   5.11654535
_cell_length_b   5.17370528
_cell_length_c   7.23222649
_cell_angle_alpha   94.86374146
_cell_angle_beta   100.59221774
_cell_angle_gamma   109.53571638
_symmetry_Int_Tables_number   1
_chemical_formula_structural   LiY2Te4MoP3
_chemical_formula_sum   'Li1 Y2 Te4 Mo1 P3'
_cell_volume   175.12817580
_cell_formula_units_Z   1
loop_
 _symmetry_equiv_pos_site_id
 _symmetry_equiv_pos_as_xyz
  1  'x, y, z'
loop_
 _atom_site_type_symbol
 _atom_site_label
 _atom_site_symmetry_multiplicity
 _atom_site_fract_x
 _atom_site_fract_y
 _atom_site_fract_z
 _atom_site_occupancy
  Te  Te0  1  0.00000000  0.00000000  0.00000000  1
  Te  Te1  1  0.50000000  0.50000000  0.50000000  1
  Te  Te2  1  0.25000000  0.25000000  0.25000000  1
  Te  Te3  1  0.75000000  0.25000000  0.00000000  1
  P  P4  1  0.25000000  0.75000000  0.50000000  1
  P  P5  1  0.32438338  0.78226053  0.76095596  1
  P  P6  1  0.78531800  0.99153179  0.01701552  1
  Mo  Mo7  1  0.82729549  0.20250866  0.38837850  1
  Li  Li8  1  0.19209010  0.70317629  0.47406486  1
  Y  Y9  1  0.13934825  0.47818630  0.76159004  1
  Y  Y10  1  0.66828589  0.12013306  0.60757865  1
