# generated using pymatgen
data_LiF
_symmetry_space_group_name_H-M   'P 1'
_cell_length_a   4.26894422
_cell_length_b   4.26894422
_cell_length_c   7.86259460
_cell_angle_alpha   90.00000000
_cell_angle_beta   90.00000000
_cell_angle_gamma   120.00000000
_symmetry_Int_Tables_number   1
_chemical_formula_structural   LiF
_chemical_formula_sum   'Li6 F6'
_cell_volume   124.09019774
_cell_formula_units_Z   6
loop_
 _symmetry_equiv_pos_site_id
 _symmetry_equiv_pos_as_xyz
  1  'x, y, z'
loop_
 _atom_site_type_symbol
 _atom_site_label
 _atom_site_symmetry_multiplicity
 _atom_site_fract_x
 _atom_site_fract_y
 _atom_site_fract_z
 _atom_site_occupancy
  F  F0  1  0.66666667  0.33333333  0.05574128  1
  F  F1  1  0.66666667  0.33333333  0.94425872  1
  F  F2  1  0.54958102  0.45041898  0.50000000  1
  F  F3  1  0.54958102  0.09916203  0.50000000  1
  F  F4  1  0.90083797  0.45041898  0.50000000  1
  F  F5  1  0.33333333  0.66666667  -0.00000000  1
  Li  Li6  1  0.88642459  0.11357541  0.50000000  1
  Li  Li7  1  0.88642459  0.77284919  0.50000000  1
  Li  Li8  1  0.22715081  0.11357541  0.50000000  1
  Li  Li9  1  0.18316070  0.81683930  0.00000000  1
  Li  Li10  1  0.18316070  0.36632140  0.00000000  1
  Li  Li11  1  0.63367860  0.81683930  0.00000000  1
