# generated using pymatgen
data_LiF
_symmetry_space_group_name_H-M   'P 1'
_cell_length_a   5.61610005
_cell_length_b   5.61610005
_cell_length_c   35.96261744
_cell_angle_alpha   90.00000000
_cell_angle_beta   90.00000000
_cell_angle_gamma   120.00000000
_symmetry_Int_Tables_number   1
_chemical_formula_structural   LiF
_chemical_formula_sum   'Li28 F28'
_cell_volume   982.31685667
_cell_formula_units_Z   28
loop_
 _symmetry_equiv_pos_site_id
 _symmetry_equiv_pos_as_xyz
  1  'x, y, z'
loop_
 _atom_site_type_symbol
 _atom_site_label
 _atom_site_symmetry_multiplicity
 _atom_site_fract_x
 _atom_site_fract_y
 _atom_site_fract_z
 _atom_site_occupancy
  F  F0  1  0.36179994  0.23003589  0.94187276  1
  F  F1  1  -0.23003589  0.13176406  0.94187276  1
  F  F2  1  -0.13176406  -0.36179994  0.94187276  1
  F  F3  1  -0.36179994  -0.23003589  1.44187276  1
  F  F4  1  0.23003589  -0.13176406  1.44187276  1
  F  F5  1  0.13176406  0.36179994  1.44187276  1
  F  F6  1  -0.36179994  -0.23003589  -0.94187276  1
  F  F7  1  0.23003589  -0.13176406  -0.94187276  1
  F  F8  1  0.13176406  0.36179994  -0.94187276  1
  F  F9  1  0.36179994  0.23003589  -0.44187276  1
  F  F10  1  -0.23003589  0.13176406  -0.44187276  1
  F  F11  1  -0.13176406  -0.36179994  -0.44187276  1
  F  F12  1  0.78874320  0.04334054  0.28623694  1
  F  F13  1  0.95665946  0.74540266  0.28623694  1
  F  F14  1  0.25459734  0.21125680  0.28623694  1
  F  F15  1  0.21125680  0.95665946  0.78623694  1
  F  F16  1  0.04334054  0.25459734  0.78623694  1
  F  F17  1  0.74540266  0.78874320  0.78623694  1
  F  F18  1  0.21125680  0.95665946  0.71376306  1
  F  F19  1  0.04334054  0.25459734  0.71376306  1
  F  F20  1  0.74540266  0.78874320  0.71376306  1
  F  F21  1  0.78874320  0.04334054  0.21376306  1
  F  F22  1  0.95665946  0.74540266  0.21376306  1
  F  F23  1  0.25459734  0.21125680  0.21376306  1
  F  F24  1  0.00000000  0.00000000  0.88982423  1
  F  F25  1  0.00000000  0.00000000  0.38982423  1
  F  F26  1  0.00000000  0.00000000  0.11017577  1
  F  F27  1  0.00000000  0.00000000  0.61017577  1
  Li  Li28  1  0.25028641  0.85658579  0.64156690  1
  Li  Li29  1  0.14341421  0.39370062  0.64156690  1
  Li  Li30  1  0.60629938  0.74971359  0.64156690  1
  Li  Li31  1  0.74971359  0.14341421  0.14156690  1
  Li  Li32  1  0.85658579  0.60629938  0.14156690  1
  Li  Li33  1  0.39370062  0.25028641  0.14156690  1
  Li  Li34  1  0.74971359  0.14341421  0.35843310  1
  Li  Li35  1  0.85658579  0.60629938  0.35843310  1
  Li  Li36  1  0.39370062  0.25028641  0.35843310  1
  Li  Li37  1  0.25028641  0.85658579  0.85843310  1
  Li  Li38  1  0.14341421  0.39370062  0.85843310  1
  Li  Li39  1  0.60629938  0.74971359  0.85843310  1
  Li  Li40  1  0.28873344  0.97730676  0.47688510  1
  Li  Li41  1  0.02269324  0.31142668  0.47688510  1
  Li  Li42  1  0.68857332  0.71126656  0.47688510  1
  Li  Li43  1  0.71126656  0.02269324  0.97688510  1
  Li  Li44  1  0.97730676  0.68857332  0.97688510  1
  Li  Li45  1  0.31142668  0.28873344  0.97688510  1
  Li  Li46  1  0.71126656  0.02269324  0.52311490  1
  Li  Li47  1  0.97730676  0.68857332  0.52311490  1
  Li  Li48  1  0.31142668  0.28873344  0.52311490  1
  Li  Li49  1  0.28873344  0.97730676  0.02311490  1
  Li  Li50  1  0.02269324  0.31142668  0.02311490  1
  Li  Li51  1  0.68857332  0.71126656  0.02311490  1
  Li  Li52  1  0.33333333  0.66666667  0.25000000  1
  Li  Li53  1  0.66666667  0.33333333  0.75000000  1
  Li  Li54  1  0.00000000  0.00000000  0.00000000  1
  Li  Li55  1  0.00000000  0.00000000  0.50000000  1
