# generated using pymatgen
data_Li2Cu3P2
_symmetry_space_group_name_H-M   'P 1'
_cell_length_a   5.18531959
_cell_length_b   5.39666334
_cell_length_c   6.74393607
_cell_angle_alpha   94.08676355
_cell_angle_beta   97.80619611
_cell_angle_gamma   103.73400815
_symmetry_Int_Tables_number   1
_chemical_formula_structural   Li2Cu3P2
_chemical_formula_sum   'Li2 Cu3 P2'
_cell_volume   180.57022478
_cell_formula_units_Z   1
loop_
 _symmetry_equiv_pos_site_id
 _symmetry_equiv_pos_as_xyz
  1  'x, y, z'
loop_
 _atom_site_type_symbol
 _atom_site_label
 _atom_site_symmetry_multiplicity
 _atom_site_fract_x
 _atom_site_fract_y
 _atom_site_fract_z
 _atom_site_occupancy
  Cu  Cu0  1  0.00000000  0.00000000  0.00000000  1
  Cu  Cu1  1  0.50000000  0.50000000  0.50000000  1
  Cu  Cu2  1  0.25000000  0.25000000  0.25000000  1
  P  P3  1  0.75000000  0.25000000  0.00000000  1
  P  P4  1  0.25000000  0.75000000  0.50000000  1
  Li  Li5  1  0.14921753  0.95276246  0.13077294  1
  Li  Li6  1  0.18375750  0.12274218  0.70666265  1
