# generated using pymatgen
data_Li2YP3Pb2Se
_symmetry_space_group_name_H-M   'P 1'
_cell_length_a   5.63506798
_cell_length_b   5.71357215
_cell_length_c   7.13239837
_cell_angle_alpha   94.47282254
_cell_angle_beta   97.71177992
_cell_angle_gamma   102.35112909
_symmetry_Int_Tables_number   1
_chemical_formula_structural   Li2YP3Pb2Se
_chemical_formula_sum   'Li2 Y1 P3 Pb2 Se1'
_cell_volume   220.93927956
_cell_formula_units_Z   1
loop_
 _symmetry_equiv_pos_site_id
 _symmetry_equiv_pos_as_xyz
  1  'x, y, z'
loop_
 _atom_site_type_symbol
 _atom_site_label
 _atom_site_symmetry_multiplicity
 _atom_site_fract_x
 _atom_site_fract_y
 _atom_site_fract_z
 _atom_site_occupancy
  Se  Se0  1  0.00000000  0.00000000  0.00000000  1
  Pb  Pb1  1  0.50000000  0.50000000  0.50000000  1
  Pb  Pb2  1  0.50000000  0.50000000  0.00000000  1
  Y  Y3  1  0.50000000  0.00000000  0.50000000  1
  P  P4  1  0.00000000  0.50000000  0.50000000  1
  P  P5  1  0.79319238  0.33625236  0.58518378  1
  P  P6  1  0.56075987  0.03061778  0.70049767  1
  Li  Li7  1  0.33639646  0.30516885  0.01517569  1
  Li  Li8  1  0.13180592  0.82667345  0.33777130  1
