# generated using pymatgen
data_LiF
_symmetry_space_group_name_H-M   'P 1'
_cell_length_a   13.83387825
_cell_length_b   13.83387825
_cell_length_c   4.12777895
_cell_angle_alpha   90.00000000
_cell_angle_beta   90.00000000
_cell_angle_gamma   120.00000000
_symmetry_Int_Tables_number   1
_chemical_formula_structural   LiF
_chemical_formula_sum   'Li31 F31'
_cell_volume   684.12421299
_cell_formula_units_Z   31
loop_
 _symmetry_equiv_pos_site_id
 _symmetry_equiv_pos_as_xyz
  1  'x, y, z'
loop_
 _atom_site_type_symbol
 _atom_site_label
 _atom_site_symmetry_multiplicity
 _atom_site_fract_x
 _atom_site_fract_y
 _atom_site_fract_z
 _atom_site_occupancy
  F  F0  1  0.53202141  0.41456176  0.46583789  1
  F  F1  1  0.58543824  0.11745964  0.46583789  1
  F  F2  1  0.88254036  0.46797859  0.46583789  1
  F  F3  1  0.58543824  0.46797859  0.53416211  1
  F  F4  1  0.88254036  0.41456176  0.53416211  1
  F  F5  1  0.53202141  0.11745964  0.53416211  1
  F  F6  1  0.59830054  0.04546877  0.85465287  1
  F  F7  1  0.95453123  0.55283177  0.85465287  1
  F  F8  1  0.44716823  0.40169946  0.85465287  1
  F  F9  1  0.95453123  0.40169946  0.14534713  1
  F  F10  1  0.44716823  0.04546877  0.14534713  1
  F  F11  1  0.59830054  0.55283177  0.14534713  1
  F  F12  1  0.20832675  0.56168591  0.40274935  1
  F  F13  1  0.43831409  0.64664084  0.40274935  1
  F  F14  1  0.35335916  0.79167325  0.40274935  1
  F  F15  1  0.43831409  0.79167325  0.59725065  1
  F  F16  1  0.35335916  0.56168591  0.59725065  1
  F  F17  1  0.20832675  0.64664084  0.59725065  1
  F  F18  1  0.66666667  0.33333333  0.50000000  1
  F  F19  1  0.55848555  0.39206598  0.16960949  1
  F  F20  1  0.60793402  0.16641958  0.16960949  1
  F  F21  1  0.83358042  0.44151445  0.16960949  1
  F  F22  1  0.60793402  0.44151445  0.83039051  1
  F  F23  1  0.83358042  0.39206598  0.83039051  1
  F  F24  1  0.55848555  0.16641958  0.83039051  1
  F  F25  1  0.83741374  0.39387821  0.26118773  1
  F  F26  1  0.60612179  0.44353553  0.26118773  1
  F  F27  1  0.55646447  0.16258626  0.26118773  1
  F  F28  1  0.60612179  0.16258626  0.73881227  1
  F  F29  1  0.55646447  0.39387821  0.73881227  1
  F  F30  1  0.83741374  0.44353553  0.73881227  1
  Li  Li31  1  0.29616702  0.24126867  0.35190161  1
  Li  Li32  1  -0.24126867  0.05489835  0.35190161  1
  Li  Li33  1  -0.05489835  -0.29616702  0.35190161  1
  Li  Li34  1  -0.24126867  -0.29616702  -0.35190161  1
  Li  Li35  1  -0.05489835  0.24126867  -0.35190161  1
  Li  Li36  1  0.29616702  0.05489835  -0.35190161  1
  Li  Li37  1  0.94965627  0.11882170  0.28284422  1
  Li  Li38  1  0.88117830  0.83083456  0.28284422  1
  Li  Li39  1  0.16916544  0.05034373  0.28284422  1
  Li  Li40  1  0.88117830  0.05034373  0.71715578  1
  Li  Li41  1  0.16916544  0.11882170  0.71715578  1
  Li  Li42  1  0.94965627  0.83083456  0.71715578  1
  Li  Li43  1  0.00538735  0.41471082  0.39434808  1
  Li  Li44  1  0.58528918  0.59067653  0.39434808  1
  Li  Li45  1  0.40932347  0.99461265  0.39434808  1
  Li  Li46  1  0.58528918  0.99461265  0.60565192  1
  Li  Li47  1  0.40932347  0.41471082  0.60565192  1
  Li  Li48  1  0.00538735  0.59067653  0.60565192  1
  Li  Li49  1  0.42567787  0.57432213  0.50000000  1
  Li  Li50  1  0.42567787  0.85135575  0.50000000  1
  Li  Li51  1  0.14864425  0.57432213  0.50000000  1
  Li  Li52  1  0.66666667  0.33333333  -0.00000000  1
  Li  Li53  1  0.06344780  0.38173449  0.82622974  1
  Li  Li54  1  0.61826551  0.68171330  0.82622974  1
  Li  Li55  1  0.31828670  0.93655220  0.82622974  1
  Li  Li56  1  0.61826551  0.93655220  0.17377026  1
  Li  Li57  1  0.31828670  0.38173449  0.17377026  1
  Li  Li58  1  0.06344780  0.68171330  0.17377026  1
  Li  Li59  1  0.17409049  0.82590951  0.00000000  1
  Li  Li60  1  0.17409049  0.34818097  0.00000000  1
  Li  Li61  1  0.65181903  0.82590951  0.00000000  1
