# generated using pymatgen
data_Li2P3
_symmetry_space_group_name_H-M   'P 1'
_cell_length_a   4.26077427
_cell_length_b   4.58498489
_cell_length_c   6.58097384
_cell_angle_alpha   95.08342342
_cell_angle_beta   101.30898686
_cell_angle_gamma   110.61226202
_symmetry_Int_Tables_number   1
_chemical_formula_structural   Li2P3
_chemical_formula_sum   'Li2 P3'
_cell_volume   116.24317534
_cell_formula_units_Z   1
loop_
 _symmetry_equiv_pos_site_id
 _symmetry_equiv_pos_as_xyz
  1  'x, y, z'
loop_
 _atom_site_type_symbol
 _atom_site_label
 _atom_site_symmetry_multiplicity
 _atom_site_fract_x
 _atom_site_fract_y
 _atom_site_fract_z
 _atom_site_occupancy
  P  P0  1  0.12500000  0.12500000  0.12500000  1
  P  P1  1  0.50000000  0.50000000  0.50000000  1
  P  P2  1  0.25000000  0.25000000  0.25000000  1
  Li  Li3  1  0.75000000  0.75000000  0.75000000  1
  Li  Li4  1  0.80132948  0.47850162  0.15581176  1
