# generated using pymatgen
data_LiCaF3
_symmetry_space_group_name_H-M   'P 1'
_cell_length_a   7.54597714
_cell_length_b   7.54597714
_cell_length_c   35.70576816
_cell_angle_alpha   90.00000000
_cell_angle_beta   90.00000000
_cell_angle_gamma   120.00000000
_symmetry_Int_Tables_number   1
_chemical_formula_structural   LiCaF3
_chemical_formula_sum   'Li18 Ca18 F54'
_cell_volume   1760.75926606
_cell_formula_units_Z   18
loop_
 _symmetry_equiv_pos_site_id
 _symmetry_equiv_pos_as_xyz
  1  'x, y, z'
loop_
 _atom_site_type_symbol
 _atom_site_label
 _atom_site_symmetry_multiplicity
 _atom_site_fract_x
 _atom_site_fract_y
 _atom_site_fract_z
 _atom_site_occupancy
  Ca  Ca0  1  0.00000000  0.00000000  0.16975471  1
  Ca  Ca1  1  0.00000000  0.00000000  0.83024529  1
  Ca  Ca2  1  0.49302740  0.12956226  0.06577195  1
  Ca  Ca3  1  0.87043774  0.36346514  0.06577195  1
  Ca  Ca4  1  0.63653486  0.50697260  0.06577195  1
  Ca  Ca5  1  0.87043774  0.50697260  0.93422805  1
  Ca  Ca6  1  0.63653486  0.12956226  0.93422805  1
  Ca  Ca7  1  0.49302740  0.36346514  0.93422805  1
  Ca  Ca8  1  0.48023059  0.29549267  0.70992175  1
  Ca  Ca9  1  0.70450733  0.18473791  0.70992175  1
  Ca  Ca10  1  0.81526209  0.51976941  0.70992175  1
  Ca  Ca11  1  0.70450733  0.51976941  0.29007825  1
  Ca  Ca12  1  0.81526209  0.29549267  0.29007825  1
  Ca  Ca13  1  0.48023059  0.18473791  0.29007825  1
  Ca  Ca14  1  0.56386886  0.43613114  0.50000000  1
  Ca  Ca15  1  0.56386886  0.12773772  0.50000000  1
  Ca  Ca16  1  0.87226228  0.43613114  0.50000000  1
  Ca  Ca17  1  0.33333333  0.66666667  0.50000000  1
  F  F18  1  0.00000000  0.00000000  0.50000000  1
  F  F19  1  0.66666667  0.33333333  0.01700917  1
  F  F20  1  0.66666667  0.33333333  0.98299083  1
  F  F21  1  0.46883179  0.90834237  0.84331189  1
  F  F22  1  -0.90834237  -0.43951058  0.84331189  1
  F  F23  1  0.43951058  -0.46883179  0.84331189  1
  F  F24  1  -0.90834237  -0.46883179  -0.84331189  1
  F  F25  1  0.43951058  0.90834237  -0.84331189  1
  F  F26  1  0.46883179  -0.43951058  -0.84331189  1
  F  F27  1  0.58614894  0.41385106  -0.00000000  1
  F  F28  1  0.58614894  0.17229788  -0.00000000  1
  F  F29  1  0.82770212  0.41385106  0.00000000  1
  F  F30  1  0.32543187  0.51087160  0.20841031  1
  F  F31  1  0.48912840  0.81456028  0.20841031  1
  F  F32  1  0.18543972  0.67456813  0.20841031  1
  F  F33  1  0.48912840  0.67456813  0.79158969  1
  F  F34  1  0.18543972  0.51087160  0.79158969  1
  F  F35  1  0.32543187  0.81456028  0.79158969  1
  F  F36  1  0.53532295  0.77467713  0.36026880  1
  F  F37  1  0.22532287  0.76064581  0.36026880  1
  F  F38  1  0.23935419  0.46467705  0.36026880  1
  F  F39  1  0.22532287  0.46467705  0.63973120  1
  F  F40  1  0.23935419  0.77467713  0.63973120  1
  F  F41  1  0.53532295  0.76064581  0.63973120  1
  F  F42  1  0.33917367  0.11092199  0.46071617  1
  F  F43  1  0.88907801  0.22825167  0.46071617  1
  F  F44  1  0.77174833  0.66082633  0.46071617  1
  F  F45  1  0.88907801  0.66082633  0.53928383  1
  F  F46  1  0.77174833  0.11092199  0.53928383  1
  F  F47  1  0.33917367  0.22825167  0.53928383  1
  F  F48  1  0.00121090  0.90554099  0.37711371  1
  F  F49  1  0.09445901  0.09566990  0.37711371  1
  F  F50  1  0.90433010  0.99878910  0.37711371  1
  F  F51  1  0.09445901  0.99878910  0.62288629  1
  F  F52  1  0.90433010  0.90554099  0.62288629  1
  F  F53  1  0.00121090  0.09566990  0.62288629  1
  F  F54  1  0.26642567  0.06082716  0.45201552  1
  F  F55  1  0.93917284  0.20559851  0.45201552  1
  F  F56  1  0.79440149  0.73357433  0.45201552  1
  F  F57  1  0.93917284  0.73357433  0.54798448  1
  F  F58  1  0.79440149  0.06082716  0.54798448  1
  F  F59  1  0.26642567  0.20559851  0.54798448  1
  F  F60  1  0.90034261  0.22295414  0.90775162  1
  F  F61  1  0.77704586  0.67738848  0.90775162  1
  F  F62  1  0.32261152  0.09965739  0.90775162  1
  F  F63  1  0.77704586  0.09965739  0.09224838  1
  F  F64  1  0.32261152  0.22295414  0.09224838  1
  F  F65  1  0.90034261  0.67738848  0.09224838  1
  F  F66  1  0.66666667  0.33333333  0.00000000  1
  F  F67  1  0.84441924  0.15558076  0.50000000  1
  F  F68  1  0.84441924  0.68883849  0.50000000  1
  F  F69  1  0.31116151  0.15558076  0.50000000  1
  F  F70  1  0.66666667  0.33333333  0.48893913  1
  F  F71  1  0.66666667  0.33333333  0.51106087  1
  Li  Li72  1  0.99218997  0.17216192  0.59179640  1
  Li  Li73  1  0.82783808  0.82002805  0.59179640  1
  Li  Li74  1  0.17997195  0.00781003  0.59179640  1
  Li  Li75  1  0.82783808  0.00781003  0.40820360  1
  Li  Li76  1  0.17997195  0.17216192  0.40820360  1
  Li  Li77  1  0.99218997  0.82002805  0.40820360  1
  Li  Li78  1  0.00308269  0.54425659  0.68801002  1
  Li  Li79  1  0.45574341  0.45882610  0.68801002  1
  Li  Li80  1  0.54117390  0.99691731  0.68801002  1
  Li  Li81  1  0.45574341  0.99691731  0.31198998  1
  Li  Li82  1  0.54117390  0.54425659  0.31198998  1
  Li  Li83  1  0.00308269  0.45882610  0.31198998  1
  Li  Li84  1  0.40819243  0.91343655  0.91120374  1
  Li  Li85  1  0.08656345  0.49475588  0.91120374  1
  Li  Li86  1  0.50524412  0.59180757  0.91120374  1
  Li  Li87  1  0.08656345  0.59180757  0.08879626  1
  Li  Li88  1  0.50524412  0.91343655  0.08879626  1
  Li  Li89  1  0.40819243  0.49475588  0.08879626  1
