# generated using pymatgen
data_LiF
_symmetry_space_group_name_H-M   'P 1'
_cell_length_a   14.66050572
_cell_length_b   14.66050572
_cell_length_c   3.50772217
_cell_angle_alpha   90.00000000
_cell_angle_beta   90.00000000
_cell_angle_gamma   120.00000000
_symmetry_Int_Tables_number   1
_chemical_formula_structural   LiF
_chemical_formula_sum   'Li22 F22'
_cell_volume   652.91060586
_cell_formula_units_Z   22
loop_
 _symmetry_equiv_pos_site_id
 _symmetry_equiv_pos_as_xyz
  1  'x, y, z'
loop_
 _atom_site_type_symbol
 _atom_site_label
 _atom_site_symmetry_multiplicity
 _atom_site_fract_x
 _atom_site_fract_y
 _atom_site_fract_z
 _atom_site_occupancy
  F  F0  1  0.11587879  0.88412121  0.00000000  1
  F  F1  1  0.11587879  0.23175757  -0.00000000  1
  F  F2  1  0.76824243  0.88412121  -0.00000000  1
  F  F3  1  0.56749616  0.75320028  0.52469104  1
  F  F4  1  0.24679972  0.81429588  0.52469104  1
  F  F5  1  0.18570412  0.43250384  0.52469104  1
  F  F6  1  0.24679972  0.43250384  0.47530896  1
  F  F7  1  0.18570412  0.75320028  0.47530896  1
  F  F8  1  0.56749616  0.81429588  0.47530896  1
  F  F9  1  0.50978428  0.16587170  0.06889078  1
  F  F10  1  0.83412830  0.34391258  0.06889078  1
  F  F11  1  0.65608742  0.49021572  0.06889078  1
  F  F12  1  0.83412830  0.49021572  0.93110922  1
  F  F13  1  0.65608742  0.16587170  0.93110922  1
  F  F14  1  0.50978428  0.34391258  0.93110922  1
  F  F15  1  0.99067508  0.08270228  0.67297502  1
  F  F16  1  0.91729772  0.90797280  0.67297502  1
  F  F17  1  0.09202720  0.00932492  0.67297502  1
  F  F18  1  0.91729772  0.00932492  0.32702498  1
  F  F19  1  0.09202720  0.08270228  0.32702498  1
  F  F20  1  0.99067508  0.90797280  0.32702498  1
  F  F21  1  0.66666667  0.33333333  -0.00000000  1
  Li  Li22  1  0.76387198  0.43674089  0.83960585  1
  Li  Li23  1  -0.43674089  0.32713108  0.83960585  1
  Li  Li24  1  -0.32713108  -0.76387198  0.83960585  1
  Li  Li25  1  -0.43674089  -0.76387198  -0.83960585  1
  Li  Li26  1  -0.32713108  0.43674089  -0.83960585  1
  Li  Li27  1  0.76387198  0.32713108  -0.83960585  1
  Li  Li28  1  0.66666667  0.33333333  0.50000000  1
  Li  Li29  1  0.33333333  0.66666667  -0.00000000  1
  Li  Li30  1  0.99338362  0.63892982  0.12044166  1
  Li  Li31  1  0.36107018  0.35445380  0.12044166  1
  Li  Li32  1  0.64554620  0.00661638  0.12044166  1
  Li  Li33  1  0.36107018  0.00661638  0.87955834  1
  Li  Li34  1  0.64554620  0.63892982  0.87955834  1
  Li  Li35  1  0.99338362  0.35445380  0.87955834  1
  Li  Li36  1  0.29662047  0.70337953  0.50000000  1
  Li  Li37  1  0.29662047  0.59324094  0.50000000  1
  Li  Li38  1  0.40675906  0.70337953  0.50000000  1
  Li  Li39  1  0.16868820  0.83131180  0.50000000  1
  Li  Li40  1  0.16868820  0.33737640  0.50000000  1
  Li  Li41  1  0.66262360  0.83131180  0.50000000  1
  Li  Li42  1  0.00000000  0.00000000  0.77424669  1
  Li  Li43  1  0.00000000  0.00000000  0.22575331  1
