# generated using pymatgen
data_LiF
_symmetry_space_group_name_H-M   'P 1'
_cell_length_a   10.71807698
_cell_length_b   10.71807698
_cell_length_c   5.37705393
_cell_angle_alpha   90.00000000
_cell_angle_beta   90.00000000
_cell_angle_gamma   90.00000000
_symmetry_Int_Tables_number   1
_chemical_formula_structural   LiF
_chemical_formula_sum   'Li28 F28'
_cell_volume   617.70076096
_cell_formula_units_Z   28
loop_
 _symmetry_equiv_pos_site_id
 _symmetry_equiv_pos_as_xyz
  1  'x, y, z'
loop_
 _atom_site_type_symbol
 _atom_site_label
 _atom_site_symmetry_multiplicity
 _atom_site_fract_x
 _atom_site_fract_y
 _atom_site_fract_z
 _atom_site_occupancy
  F  F0  1  0.54188133  0.50000000  0.13060922  1
  F  F1  1  0.45811867  0.50000000  0.13060922  1
  F  F2  1  0.50000000  0.54188133  0.13060922  1
  F  F3  1  0.50000000  0.45811867  0.13060922  1
  F  F4  1  0.45811867  0.50000000  0.86939078  1
  F  F5  1  0.54188133  0.50000000  0.86939078  1
  F  F6  1  0.50000000  0.54188133  0.86939078  1
  F  F7  1  0.50000000  0.45811867  0.86939078  1
  F  F8  1  0.23523795  0.15076625  0.00000000  1
  F  F9  1  0.76476205  0.84923375  0.00000000  1
  F  F10  1  0.84923375  0.23523795  0.00000000  1
  F  F11  1  0.15076625  0.76476205  0.00000000  1
  F  F12  1  0.76476205  0.15076625  0.00000000  1
  F  F13  1  0.23523795  0.84923375  0.00000000  1
  F  F14  1  0.15076625  0.23523795  0.00000000  1
  F  F15  1  0.84923375  0.76476205  0.00000000  1
  F  F16  1  0.50000000  0.50000000  0.50000000  1
  F  F17  1  0.57796398  -0.00000000  0.29806564  1
  F  F18  1  0.42203602  0.00000000  0.29806564  1
  F  F19  1  0.00000000  0.57796398  0.29806564  1
  F  F20  1  0.00000000  0.42203602  0.29806564  1
  F  F21  1  0.42203602  0.00000000  0.70193436  1
  F  F22  1  0.57796398  -0.00000000  0.70193436  1
  F  F23  1  0.00000000  0.57796398  0.70193436  1
  F  F24  1  0.00000000  0.42203602  0.70193436  1
  F  F25  1  0.00000000  0.00000000  0.21410021  1
  F  F26  1  0.00000000  0.00000000  0.78589979  1
  F  F27  1  0.00000000  0.00000000  0.00000000  1
  Li  Li28  1  0.60508686  0.70525116  0.50000000  1
  Li  Li29  1  -0.60508686  -0.70525116  0.50000000  1
  Li  Li30  1  -0.70525116  0.60508686  0.50000000  1
  Li  Li31  1  0.70525116  -0.60508686  0.50000000  1
  Li  Li32  1  -0.60508686  0.70525116  0.50000000  1
  Li  Li33  1  0.60508686  -0.70525116  0.50000000  1
  Li  Li34  1  0.70525116  0.60508686  0.50000000  1
  Li  Li35  1  -0.70525116  -0.60508686  0.50000000  1
  Li  Li36  1  0.93390169  0.93390169  0.68500411  1
  Li  Li37  1  0.06609831  0.06609831  0.68500411  1
  Li  Li38  1  0.06609831  0.93390169  0.68500411  1
  Li  Li39  1  0.93390169  0.06609831  0.68500411  1
  Li  Li40  1  0.06609831  0.93390169  0.31499589  1
  Li  Li41  1  0.93390169  0.06609831  0.31499589  1
  Li  Li42  1  0.93390169  0.93390169  0.31499589  1
  Li  Li43  1  0.06609831  0.06609831  0.31499589  1
  Li  Li44  1  0.28653254  0.50000000  0.00000000  1
  Li  Li45  1  0.71346746  0.50000000  0.00000000  1
  Li  Li46  1  0.50000000  0.28653254  0.00000000  1
  Li  Li47  1  0.50000000  0.71346746  0.00000000  1
  Li  Li48  1  0.57336313  0.57336313  0.00000000  1
  Li  Li49  1  0.42663687  0.42663687  0.00000000  1
  Li  Li50  1  0.42663687  0.57336313  0.00000000  1
  Li  Li51  1  0.57336313  0.42663687  0.00000000  1
  Li  Li52  1  0.24467122  0.24467122  0.00000000  1
  Li  Li53  1  0.75532878  0.75532878  0.00000000  1
  Li  Li54  1  0.75532878  0.24467122  0.00000000  1
  Li  Li55  1  0.24467122  0.75532878  0.00000000  1
