# generated using pymatgen
data_LiF
_symmetry_space_group_name_H-M   'P 1'
_cell_length_a   12.23012609
_cell_length_b   7.34918192
_cell_length_c   4.95436782
_cell_angle_alpha   90.00000000
_cell_angle_beta   90.00000000
_cell_angle_gamma   90.00000000
_symmetry_Int_Tables_number   1
_chemical_formula_structural   LiF
_chemical_formula_sum   'Li20 F20'
_cell_volume   445.30562205
_cell_formula_units_Z   20
loop_
 _symmetry_equiv_pos_site_id
 _symmetry_equiv_pos_as_xyz
  1  'x, y, z'
loop_
 _atom_site_type_symbol
 _atom_site_label
 _atom_site_symmetry_multiplicity
 _atom_site_fract_x
 _atom_site_fract_y
 _atom_site_fract_z
 _atom_site_occupancy
  F  F0  1  0.35234748  0.16685082  0.92662803  1
  F  F1  1  0.14765252  0.83314918  0.42662803  1
  F  F2  1  0.64765252  0.66685082  0.07337197  1
  F  F3  1  0.85234748  0.33314918  0.57337197  1
  F  F4  1  0.64765252  0.83314918  0.07337197  1
  F  F5  1  0.85234748  0.16685082  0.57337197  1
  F  F6  1  0.35234748  0.33314918  0.92662803  1
  F  F7  1  0.14765252  0.66685082  0.42662803  1
  F  F8  1  0.00000000  0.00000000  0.50000000  1
  F  F9  1  0.50000000  0.00000000  -0.00000000  1
  F  F10  1  0.00000000  0.50000000  0.50000000  1
  F  F11  1  0.50000000  0.50000000  -0.00000000  1
  F  F12  1  0.05945334  0.18656287  0.01162813  1
  F  F13  1  0.44054666  0.81343713  0.51162813  1
  F  F14  1  0.94054666  0.68656287  0.98837187  1
  F  F15  1  0.55945334  0.31343713  0.48837187  1
  F  F16  1  0.94054666  0.81343713  0.98837187  1
  F  F17  1  0.55945334  0.18656287  0.48837187  1
  F  F18  1  0.05945334  0.31343713  0.01162813  1
  F  F19  1  0.44054666  0.68656287  0.51162813  1
  Li  Li20  1  0.53977521  0.85818965  0.89580854  1
  Li  Li21  1  -0.03977521  -0.85818965  1.39580854  1
  Li  Li22  1  -0.53977521  1.35818965  -0.89580854  1
  Li  Li23  1  1.03977521  -0.35818965  -0.39580854  1
  Li  Li24  1  -0.53977521  -0.85818965  -0.89580854  1
  Li  Li25  1  1.03977521  0.85818965  -0.39580854  1
  Li  Li26  1  0.53977521  -0.35818965  0.89580854  1
  Li  Li27  1  -0.03977521  1.35818965  1.39580854  1
  Li  Li28  1  0.62882082  0.11282137  0.20347353  1
  Li  Li29  1  0.87117918  0.88717863  0.70347353  1
  Li  Li30  1  0.37117918  0.61282137  0.79652647  1
  Li  Li31  1  0.12882082  0.38717863  0.29652647  1
  Li  Li32  1  0.37117918  0.88717863  0.79652647  1
  Li  Li33  1  0.12882082  0.11282137  0.29652647  1
  Li  Li34  1  0.62882082  0.38717863  0.20347353  1
  Li  Li35  1  0.87117918  0.61282137  0.70347353  1
  Li  Li36  1  0.00000000  0.00000000  0.00000000  1
  Li  Li37  1  0.50000000  0.00000000  0.50000000  1
  Li  Li38  1  0.00000000  0.50000000  0.00000000  1
  Li  Li39  1  0.50000000  0.50000000  0.50000000  1
