# generated using pymatgen
data_LiF
_symmetry_space_group_name_H-M   'P 1'
_cell_length_a   10.42436017
_cell_length_b   7.48334852
_cell_length_c   9.25838150
_cell_angle_alpha   90.00000000
_cell_angle_beta   90.00000000
_cell_angle_gamma   90.00000000
_symmetry_Int_Tables_number   1
_chemical_formula_structural   LiF
_chemical_formula_sum   'Li24 F24'
_cell_volume   722.23819614
_cell_formula_units_Z   24
loop_
 _symmetry_equiv_pos_site_id
 _symmetry_equiv_pos_as_xyz
  1  'x, y, z'
loop_
 _atom_site_type_symbol
 _atom_site_label
 _atom_site_symmetry_multiplicity
 _atom_site_fract_x
 _atom_site_fract_y
 _atom_site_fract_z
 _atom_site_occupancy
  F  F0  1  0.68259347  0.25000000  0.18769924  1
  F  F1  1  0.81740653  0.75000000  0.68769924  1
  F  F2  1  0.31740653  0.75000000  0.81230076  1
  F  F3  1  0.18259347  0.25000000  0.31230076  1
  F  F4  1  0.17449424  0.62340929  0.99433630  1
  F  F5  1  0.32550576  0.37659071  0.49433630  1
  F  F6  1  0.82550576  0.12340929  0.00566370  1
  F  F7  1  0.67449424  0.87659071  0.50566370  1
  F  F8  1  0.82550576  0.37659071  0.00566370  1
  F  F9  1  0.67449424  0.62340929  0.50566370  1
  F  F10  1  0.17449424  0.87659071  0.99433630  1
  F  F11  1  0.32550576  0.12340929  0.49433630  1
  F  F12  1  0.15732175  0.59729680  0.65974560  1
  F  F13  1  0.34267825  0.40270320  0.15974560  1
  F  F14  1  0.84267825  0.09729680  0.34025440  1
  F  F15  1  0.65732175  0.90270320  0.84025440  1
  F  F16  1  0.84267825  0.40270320  0.34025440  1
  F  F17  1  0.65732175  0.59729680  0.84025440  1
  F  F18  1  0.15732175  0.90270320  0.65974560  1
  F  F19  1  0.34267825  0.09729680  0.15974560  1
  F  F20  1  0.00000000  0.00000000  0.00000000  1
  F  F21  1  0.50000000  0.00000000  0.50000000  1
  F  F22  1  0.00000000  0.50000000  0.00000000  1
  F  F23  1  0.50000000  0.50000000  0.50000000  1
  Li  Li24  1  0.70707778  0.63159055  0.99399589  1
  Li  Li25  1  -0.20707778  -0.63159055  1.49399589  1
  Li  Li26  1  -0.70707778  1.13159055  -0.99399589  1
  Li  Li27  1  1.20707778  -0.13159055  -0.49399589  1
  Li  Li28  1  -0.70707778  -0.63159055  -0.99399589  1
  Li  Li29  1  1.20707778  0.63159055  -0.49399589  1
  Li  Li30  1  0.70707778  -0.13159055  0.99399589  1
  Li  Li31  1  -0.20707778  1.13159055  1.49399589  1
  Li  Li32  1  0.69239434  0.25000000  0.45784611  1
  Li  Li33  1  0.80760566  0.75000000  0.95784611  1
  Li  Li34  1  0.30760566  0.75000000  0.54215389  1
  Li  Li35  1  0.19239434  0.25000000  0.04215389  1
  Li  Li36  1  0.97992129  0.25000000  0.32841468  1
  Li  Li37  1  0.52007871  0.75000000  0.82841468  1
  Li  Li38  1  0.02007871  0.75000000  0.67158532  1
  Li  Li39  1  0.47992129  0.25000000  0.17158532  1
  Li  Li40  1  0.13923703  0.11724403  0.48177924  1
  Li  Li41  1  0.36076297  0.88275597  0.98177924  1
  Li  Li42  1  0.86076297  0.61724403  0.51822076  1
  Li  Li43  1  0.63923703  0.38275597  0.01822076  1
  Li  Li44  1  0.86076297  0.88275597  0.51822076  1
  Li  Li45  1  0.63923703  0.11724403  0.01822076  1
  Li  Li46  1  0.13923703  0.38275597  0.48177924  1
  Li  Li47  1  0.36076297  0.61724403  0.98177924  1
