# generated using pymatgen
data_LiF
_symmetry_space_group_name_H-M   'P 1'
_cell_length_a   3.14840949
_cell_length_b   13.07719244
_cell_length_c   14.31056796
_cell_angle_alpha   90.00000000
_cell_angle_beta   90.00000000
_cell_angle_gamma   90.00000000
_symmetry_Int_Tables_number   1
_chemical_formula_structural   LiF
_chemical_formula_sum   'Li30 F30'
_cell_volume   589.19980938
_cell_formula_units_Z   30
loop_
 _symmetry_equiv_pos_site_id
 _symmetry_equiv_pos_as_xyz
  1  'x, y, z'
loop_
 _atom_site_type_symbol
 _atom_site_label
 _atom_site_symmetry_multiplicity
 _atom_site_fract_x
 _atom_site_fract_y
 _atom_site_fract_z
 _atom_site_occupancy
  F  F0  1  0.22478362  0.84473942  0.89751173  1
  F  F1  1  -0.22478362  -0.84473942  0.89751173  1
  F  F2  1  0.27521638  1.34473942  -0.89751173  1
  F  F3  1  0.72478362  -0.34473942  -0.89751173  1
  F  F4  1  -0.22478362  -0.84473942  -0.89751173  1
  F  F5  1  0.22478362  0.84473942  -0.89751173  1
  F  F6  1  0.72478362  -0.34473942  0.89751173  1
  F  F7  1  0.27521638  1.34473942  0.89751173  1
  F  F8  1  0.78978880  0.34071288  0.13915706  1
  F  F9  1  0.21021120  0.65928712  0.13915706  1
  F  F10  1  0.71021120  0.84071288  0.86084294  1
  F  F11  1  0.28978880  0.15928712  0.86084294  1
  F  F12  1  0.21021120  0.65928712  0.86084294  1
  F  F13  1  0.78978880  0.34071288  0.86084294  1
  F  F14  1  0.28978880  0.15928712  0.13915706  1
  F  F15  1  0.71021120  0.84071288  0.13915706  1
  F  F16  1  0.00000000  0.00000000  0.50000000  1
  F  F17  1  0.50000000  0.50000000  0.50000000  1
  F  F18  1  0.03595518  0.06386292  0.09610462  1
  F  F19  1  0.96404482  0.93613708  0.09610462  1
  F  F20  1  0.46404482  0.56386292  0.90389538  1
  F  F21  1  0.53595518  0.43613708  0.90389538  1
  F  F22  1  0.96404482  0.93613708  0.90389538  1
  F  F23  1  0.03595518  0.06386292  0.90389538  1
  F  F24  1  0.53595518  0.43613708  0.09610462  1
  F  F25  1  0.46404482  0.56386292  0.09610462  1
  F  F26  1  0.67786437  0.82024052  0.00000000  1
  F  F27  1  0.32213563  0.17975948  0.00000000  1
  F  F28  1  0.82213563  0.32024052  0.00000000  1
  F  F29  1  0.17786437  0.67975948  0.00000000  1
  Li  Li30  1  0.87085600  0.96038335  0.55048523  1
  Li  Li31  1  0.12914400  0.03961665  0.55048523  1
  Li  Li32  1  0.62914400  0.46038335  0.44951477  1
  Li  Li33  1  0.37085600  0.53961665  0.44951477  1
  Li  Li34  1  0.12914400  0.03961665  0.44951477  1
  Li  Li35  1  0.87085600  0.96038335  0.44951477  1
  Li  Li36  1  0.37085600  0.53961665  0.55048523  1
  Li  Li37  1  0.62914400  0.46038335  0.55048523  1
  Li  Li38  1  0.93350393  0.81262672  0.33405098  1
  Li  Li39  1  0.06649607  0.18737328  0.33405098  1
  Li  Li40  1  0.56649607  0.31262672  0.66594902  1
  Li  Li41  1  0.43350393  0.68737328  0.66594902  1
  Li  Li42  1  0.06649607  0.18737328  0.66594902  1
  Li  Li43  1  0.93350393  0.81262672  0.66594902  1
  Li  Li44  1  0.43350393  0.68737328  0.33405098  1
  Li  Li45  1  0.56649607  0.31262672  0.33405098  1
  Li  Li46  1  0.10678013  0.36143662  0.23556767  1
  Li  Li47  1  0.89321987  0.63856338  0.23556767  1
  Li  Li48  1  0.39321987  0.86143662  0.76443233  1
  Li  Li49  1  0.60678013  0.13856338  0.76443233  1
  Li  Li50  1  0.89321987  0.63856338  0.76443233  1
  Li  Li51  1  0.10678013  0.36143662  0.76443233  1
  Li  Li52  1  0.60678013  0.13856338  0.23556767  1
  Li  Li53  1  0.39321987  0.86143662  0.23556767  1
  Li  Li54  1  0.00000000  0.00000000  0.81805026  1
  Li  Li55  1  0.50000000  0.50000000  0.18194974  1
  Li  Li56  1  0.00000000  0.00000000  0.18194974  1
  Li  Li57  1  0.50000000  0.50000000  0.81805026  1
  Li  Li58  1  0.00000000  0.50000000  0.50000000  1
  Li  Li59  1  0.50000000  0.00000000  0.50000000  1
