# generated using pymatgen
data_LiF
_symmetry_space_group_name_H-M   'P 1'
_cell_length_a   8.84468189
_cell_length_b   7.29085178
_cell_length_c   9.66909802
_cell_angle_alpha   90.00000000
_cell_angle_beta   90.00000000
_cell_angle_gamma   90.00000000
_symmetry_Int_Tables_number   1
_chemical_formula_structural   LiF
_chemical_formula_sum   'Li30 F30'
_cell_volume   623.51434482
_cell_formula_units_Z   30
loop_
 _symmetry_equiv_pos_site_id
 _symmetry_equiv_pos_as_xyz
  1  'x, y, z'
loop_
 _atom_site_type_symbol
 _atom_site_label
 _atom_site_symmetry_multiplicity
 _atom_site_fract_x
 _atom_site_fract_y
 _atom_site_fract_z
 _atom_site_occupancy
  F  F0  1  0.58778115  0.64379947  0.00000000  1
  F  F1  1  0.41221885  0.35620053  0.00000000  1
  F  F2  1  0.91221885  0.14379947  0.00000000  1
  F  F3  1  0.08778115  0.85620053  0.00000000  1
  F  F4  1  0.46991392  0.51896489  0.05733655  1
  F  F5  1  0.53008608  0.48103511  0.05733655  1
  F  F6  1  0.03008608  0.01896489  0.94266345  1
  F  F7  1  0.96991392  0.98103511  0.94266345  1
  F  F8  1  0.53008608  0.48103511  0.94266345  1
  F  F9  1  0.46991392  0.51896489  0.94266345  1
  F  F10  1  0.96991392  0.98103511  0.05733655  1
  F  F11  1  0.03008608  0.01896489  0.05733655  1
  F  F12  1  0.56230030  0.75127486  0.45713717  1
  F  F13  1  0.43769970  0.24872514  0.45713717  1
  F  F14  1  0.93769970  0.25127486  0.54286283  1
  F  F15  1  0.06230030  0.74872514  0.54286283  1
  F  F16  1  0.43769970  0.24872514  0.54286283  1
  F  F17  1  0.56230030  0.75127486  0.54286283  1
  F  F18  1  0.06230030  0.74872514  0.45713717  1
  F  F19  1  0.93769970  0.25127486  0.45713717  1
  F  F20  1  0.58428254  0.02463073  0.63126618  1
  F  F21  1  0.41571746  0.97536927  0.63126618  1
  F  F22  1  0.91571746  0.52463073  0.36873382  1
  F  F23  1  0.08428254  0.47536927  0.36873382  1
  F  F24  1  0.41571746  0.97536927  0.36873382  1
  F  F25  1  0.58428254  0.02463073  0.36873382  1
  F  F26  1  0.08428254  0.47536927  0.63126618  1
  F  F27  1  0.91571746  0.52463073  0.63126618  1
  F  F28  1  0.00000000  0.00000000  0.00000000  1
  F  F29  1  0.50000000  0.50000000  0.00000000  1
  Li  Li30  1  0.00000000  0.00000000  0.50000000  1
  Li  Li31  1  0.50000000  0.50000000  0.50000000  1
  Li  Li32  1  0.52406722  0.21086585  0.00000000  1
  Li  Li33  1  0.47593278  0.78913415  0.00000000  1
  Li  Li34  1  0.97593278  0.71086585  0.00000000  1
  Li  Li35  1  0.02406722  0.28913415  0.00000000  1
  Li  Li36  1  0.19154762  0.09166394  -0.00000000  1
  Li  Li37  1  0.80845238  0.90833606  0.00000000  1
  Li  Li38  1  0.30845238  0.59166394  0.00000000  1
  Li  Li39  1  0.69154762  0.40833606  0.00000000  1
  Li  Li40  1  0.00000000  0.50000000  0.50000000  1
  Li  Li41  1  0.50000000  0.00000000  0.50000000  1
  Li  Li42  1  0.30189134  0.16584073  0.19057335  1
  Li  Li43  1  -0.30189134  -0.16584073  0.19057335  1
  Li  Li44  1  0.19810866  0.66584073  -0.19057335  1
  Li  Li45  1  0.80189134  0.33415927  -0.19057335  1
  Li  Li46  1  -0.30189134  -0.16584073  -0.19057335  1
  Li  Li47  1  0.30189134  0.16584073  -0.19057335  1
  Li  Li48  1  0.80189134  0.33415927  0.19057335  1
  Li  Li49  1  0.19810866  0.66584073  0.19057335  1
  Li  Li50  1  0.09537095  0.23538525  0.70210133  1
  Li  Li51  1  0.90462905  0.76461475  0.70210133  1
  Li  Li52  1  0.40462905  0.73538525  0.29789867  1
  Li  Li53  1  0.59537095  0.26461475  0.29789867  1
  Li  Li54  1  0.90462905  0.76461475  0.29789867  1
  Li  Li55  1  0.09537095  0.23538525  0.29789867  1
  Li  Li56  1  0.59537095  0.26461475  0.70210133  1
  Li  Li57  1  0.40462905  0.73538525  0.70210133  1
  Li  Li58  1  0.00000000  0.50000000  0.00000000  1
  Li  Li59  1  0.50000000  0.00000000  0.00000000  1
