# generated using pymatgen
data_Li2Y2P2Se
_symmetry_space_group_name_H-M   'P 1'
_cell_length_a   5.52251927
_cell_length_b   5.58855752
_cell_length_c   7.11704904
_cell_angle_alpha   93.72019494
_cell_angle_beta   97.71047424
_cell_angle_gamma   104.32882464
_symmetry_Int_Tables_number   1
_chemical_formula_structural   Li2Y2P2Se
_chemical_formula_sum   'Li2 Y2 P2 Se1'
_cell_volume   209.79216879
_cell_formula_units_Z   1
loop_
 _symmetry_equiv_pos_site_id
 _symmetry_equiv_pos_as_xyz
  1  'x, y, z'
loop_
 _atom_site_type_symbol
 _atom_site_label
 _atom_site_symmetry_multiplicity
 _atom_site_fract_x
 _atom_site_fract_y
 _atom_site_fract_z
 _atom_site_occupancy
  Se  Se0  1  0.00000000  0.00000000  0.00000000  1
  P  P1  1  0.50000000  0.50000000  0.50000000  1
  P  P2  1  0.50000000  0.50000000  0.00000000  1
  Li  Li3  1  0.50000000  0.00000000  0.50000000  1
  Li  Li4  1  0.00000000  0.50000000  0.50000000  1
  Y  Y5  1  0.28551498  0.46819695  0.80672797  1
  Y  Y6  1  0.77235432  0.07734931  0.40342293  1
