# generated using pymatgen
data_LiF
_symmetry_space_group_name_H-M   'P 1'
_cell_length_a   14.97743797
_cell_length_b   14.97743797
_cell_length_c   2.85232694
_cell_angle_alpha   90.00000000
_cell_angle_beta   90.00000000
_cell_angle_gamma   120.00000000
_symmetry_Int_Tables_number   1
_chemical_formula_structural   LiF
_chemical_formula_sum   'Li22 F22'
_cell_volume   554.12149161
_cell_formula_units_Z   22
loop_
 _symmetry_equiv_pos_site_id
 _symmetry_equiv_pos_as_xyz
  1  'x, y, z'
loop_
 _atom_site_type_symbol
 _atom_site_label
 _atom_site_symmetry_multiplicity
 _atom_site_fract_x
 _atom_site_fract_y
 _atom_site_fract_z
 _atom_site_occupancy
  F  F0  1  0.53124794  0.19599256  0.34926527  1
  F  F1  1  0.80400744  0.33525539  0.34926527  1
  F  F2  1  0.66474461  0.46875206  0.34926527  1
  F  F3  1  0.80400744  0.46875206  0.65073473  1
  F  F4  1  0.66474461  0.19599256  0.65073473  1
  F  F5  1  0.53124794  0.33525539  0.65073473  1
  F  F6  1  0.73785715  0.99431484  0.03860605  1
  F  F7  1  0.00568516  0.74354232  0.03860605  1
  F  F8  1  0.25645768  0.26214285  0.03860605  1
  F  F9  1  0.00568516  0.26214285  0.96139395  1
  F  F10  1  0.25645768  0.99431484  0.96139395  1
  F  F11  1  0.73785715  0.74354232  0.96139395  1
  F  F12  1  0.33333333  0.66666667  0.50000000  1
  F  F13  1  0.28498720  0.25850916  0.63593456  1
  F  F14  1  0.74149084  0.02647803  0.63593456  1
  F  F15  1  0.97352197  0.71501280  0.63593456  1
  F  F16  1  0.74149084  0.71501280  0.36406544  1
  F  F17  1  0.97352197  0.25850916  0.36406544  1
  F  F18  1  0.28498720  0.02647803  0.36406544  1
  F  F19  1  0.03433115  0.96566885  0.00000000  1
  F  F20  1  0.03433115  0.06866229  -0.00000000  1
  F  F21  1  0.93133771  0.96566885  0.00000000  1
  Li  Li22  1  0.66790914  0.09224030  0.92699511  1
  Li  Li23  1  -0.09224030  0.57566884  0.92699511  1
  Li  Li24  1  -0.57566884  -0.66790914  0.92699511  1
  Li  Li25  1  -0.09224030  -0.66790914  -0.92699511  1
  Li  Li26  1  -0.57566884  0.09224030  -0.92699511  1
  Li  Li27  1  0.66790914  0.57566884  -0.92699511  1
  Li  Li28  1  0.14639995  0.85360005  0.50000000  1
  Li  Li29  1  0.14639995  0.29279991  0.50000000  1
  Li  Li30  1  0.70720009  0.85360005  0.50000000  1
  Li  Li31  1  0.42932181  0.19431056  0.25791139  1
  Li  Li32  1  0.80568944  0.23501124  0.25791139  1
  Li  Li33  1  0.76498876  0.57067819  0.25791139  1
  Li  Li34  1  0.80568944  0.57067819  0.74208861  1
  Li  Li35  1  0.76498876  0.19431056  0.74208861  1
  Li  Li36  1  0.42932181  0.23501124  0.74208861  1
  Li  Li37  1  0.20861416  0.79138584  -0.00000000  1
  Li  Li38  1  0.20861416  0.41722832  -0.00000000  1
  Li  Li39  1  0.58277168  0.79138584  0.00000000  1
  Li  Li40  1  0.42353463  0.57646537  0.00000000  1
  Li  Li41  1  0.42353463  0.84706927  -0.00000000  1
  Li  Li42  1  0.15293073  0.57646537  0.00000000  1
  Li  Li43  1  0.33333333  0.66666667  0.00000000  1
