# generated using pymatgen
data_Li2Y2P3Se2
_symmetry_space_group_name_H-M   'P 1'
_cell_length_a   5.32801194
_cell_length_b   5.43665562
_cell_length_c   7.37651252
_cell_angle_alpha   94.30230225
_cell_angle_beta   99.36951988
_cell_angle_gamma   107.28063823
_symmetry_Int_Tables_number   1
_chemical_formula_structural   Li2Y2P3Se2
_chemical_formula_sum   'Li2 Y2 P3 Se2'
_cell_volume   199.57170854
_cell_formula_units_Z   1
loop_
 _symmetry_equiv_pos_site_id
 _symmetry_equiv_pos_as_xyz
  1  'x, y, z'
loop_
 _atom_site_type_symbol
 _atom_site_label
 _atom_site_symmetry_multiplicity
 _atom_site_fract_x
 _atom_site_fract_y
 _atom_site_fract_z
 _atom_site_occupancy
  Se  Se0  1  0.00000000  0.00000000  0.00000000  1
  Se  Se1  1  0.33300000  0.66700000  0.25000000  1
  P  P2  1  0.66700000  0.33300000  0.50000000  1
  P  P3  1  0.00000000  0.00000000  0.75000000  1
  P  P4  1  0.71537983  0.96214376  0.52073325  1
  Li  Li5  1  0.71420928  0.01987104  0.54681231  1
  Li  Li6  1  0.44712579  0.77940360  0.19087822  1
  Y  Y7  1  0.56704291  0.39322971  0.66206179  1
  Y  Y8  1  0.44800704  0.91110360  0.47440292  1
