# generated using pymatgen
data_LiF
_symmetry_space_group_name_H-M   'P 1'
_cell_length_a   11.78689150
_cell_length_b   12.39874781
_cell_length_c   3.96369864
_cell_angle_alpha   90.00000000
_cell_angle_beta   90.00000000
_cell_angle_gamma   90.00000000
_symmetry_Int_Tables_number   1
_chemical_formula_structural   LiF
_chemical_formula_sum   'Li28 F28'
_cell_volume   579.26560188
_cell_formula_units_Z   28
loop_
 _symmetry_equiv_pos_site_id
 _symmetry_equiv_pos_as_xyz
  1  'x, y, z'
loop_
 _atom_site_type_symbol
 _atom_site_label
 _atom_site_symmetry_multiplicity
 _atom_site_fract_x
 _atom_site_fract_y
 _atom_site_fract_z
 _atom_site_occupancy
  F  F0  1  0.35666307  0.21937043  0.38590332  1
  F  F1  1  0.14333693  0.78062957  0.88590332  1
  F  F2  1  0.64333693  0.71937043  0.61409668  1
  F  F3  1  0.85666307  0.28062957  0.11409668  1
  F  F4  1  0.64333693  0.78062957  0.61409668  1
  F  F5  1  0.85666307  0.21937043  0.11409668  1
  F  F6  1  0.35666307  0.28062957  0.38590332  1
  F  F7  1  0.14333693  0.71937043  0.88590332  1
  F  F8  1  0.02445289  0.06670556  0.42367223  1
  F  F9  1  0.47554711  0.93329444  0.92367223  1
  F  F10  1  0.97554711  0.56670556  0.57632777  1
  F  F11  1  0.52445289  0.43329444  0.07632777  1
  F  F12  1  0.97554711  0.93329444  0.57632777  1
  F  F13  1  0.52445289  0.06670556  0.07632777  1
  F  F14  1  0.02445289  0.43329444  0.42367223  1
  F  F15  1  0.47554711  0.56670556  0.92367223  1
  F  F16  1  0.62486660  0.25000000  0.40395704  1
  F  F17  1  0.87513340  0.75000000  0.90395704  1
  F  F18  1  0.37513340  0.75000000  0.59604296  1
  F  F19  1  0.12486660  0.25000000  0.09604296  1
  F  F20  1  0.36132764  0.25000000  0.59761645  1
  F  F21  1  0.13867236  0.75000000  0.09761645  1
  F  F22  1  0.63867236  0.75000000  0.40238355  1
  F  F23  1  0.86132764  0.25000000  0.90238355  1
  F  F24  1  0.12360802  0.25000000  0.85970306  1
  F  F25  1  0.37639198  0.75000000  0.35970306  1
  F  F26  1  0.87639198  0.75000000  0.14029694  1
  F  F27  1  0.62360802  0.25000000  0.64029694  1
  Li  Li28  1  0.40971484  0.45334429  0.77563755  1
  Li  Li29  1  0.09028516  -0.45334429  1.27563755  1
  Li  Li30  1  -0.40971484  0.95334429  -0.77563755  1
  Li  Li31  1  0.90971484  0.04665571  -0.27563755  1
  Li  Li32  1  -0.40971484  -0.45334429  -0.77563755  1
  Li  Li33  1  0.90971484  0.45334429  -0.27563755  1
  Li  Li34  1  0.40971484  0.04665571  0.77563755  1
  Li  Li35  1  0.09028516  0.95334429  1.27563755  1
  Li  Li36  1  0.00000000  0.00000000  0.50000000  1
  Li  Li37  1  0.50000000  0.00000000  -0.00000000  1
  Li  Li38  1  0.00000000  0.50000000  0.50000000  1
  Li  Li39  1  0.50000000  0.50000000  0.00000000  1
  Li  Li40  1  0.43341684  0.30390147  0.02203540  1
  Li  Li41  1  0.06658316  0.69609853  0.52203540  1
  Li  Li42  1  0.56658316  0.80390147  0.97796460  1
  Li  Li43  1  0.93341684  0.19609853  0.47796460  1
  Li  Li44  1  0.56658316  0.69609853  0.97796460  1
  Li  Li45  1  0.93341684  0.30390147  0.47796460  1
  Li  Li46  1  0.43341684  0.19609853  0.02203540  1
  Li  Li47  1  0.06658316  0.80390147  0.52203540  1
  Li  Li48  1  0.57349720  0.19103154  0.82323038  1
  Li  Li49  1  0.92650280  0.80896846  0.32323038  1
  Li  Li50  1  0.42650280  0.69103154  0.17676962  1
  Li  Li51  1  0.07349720  0.30896846  0.67676962  1
  Li  Li52  1  0.42650280  0.80896846  0.17676962  1
  Li  Li53  1  0.07349720  0.19103154  0.67676962  1
  Li  Li54  1  0.57349720  0.30896846  0.82323038  1
  Li  Li55  1  0.92650280  0.69103154  0.32323038  1
