# generated using pymatgen
data_LiF
_symmetry_space_group_name_H-M   'P 1'
_cell_length_a   4.91739773
_cell_length_b   4.91739773
_cell_length_c   9.68103204
_cell_angle_alpha   90.00000000
_cell_angle_beta   90.00000000
_cell_angle_gamma   120.00000000
_symmetry_Int_Tables_number   1
_chemical_formula_structural   LiF
_chemical_formula_sum   'Li6 F6'
_cell_volume   202.73230646
_cell_formula_units_Z   6
loop_
 _symmetry_equiv_pos_site_id
 _symmetry_equiv_pos_as_xyz
  1  'x, y, z'
loop_
 _atom_site_type_symbol
 _atom_site_label
 _atom_site_symmetry_multiplicity
 _atom_site_fract_x
 _atom_site_fract_y
 _atom_site_fract_z
 _atom_site_occupancy
  F  F0  1  0.16023499  0.32046997  0.25000000  1
  F  F1  1  -0.32046997  -0.16023499  0.25000000  1
  F  F2  1  0.16023499  -0.16023499  0.25000000  1
  F  F3  1  -0.16023499  -0.32046997  0.75000000  1
  F  F4  1  0.32046997  0.16023499  0.75000000  1
  F  F5  1  -0.16023499  0.16023499  0.75000000  1
  Li  Li6  1  0.51513800  0.03027600  0.25000000  1
  Li  Li7  1  0.96972400  0.48486200  0.25000000  1
  Li  Li8  1  0.51513800  0.48486200  0.25000000  1
  Li  Li9  1  0.48486200  0.96972400  0.75000000  1
  Li  Li10  1  0.03027600  0.51513800  0.75000000  1
  Li  Li11  1  0.48486200  0.51513800  0.75000000  1
