# generated using pymatgen
data_LiF
_symmetry_space_group_name_H-M   'P 1'
_cell_length_a   9.80441377
_cell_length_b   9.80441377
_cell_length_c   6.60099689
_cell_angle_alpha   90.00000000
_cell_angle_beta   90.00000000
_cell_angle_gamma   120.00000000
_symmetry_Int_Tables_number   1
_chemical_formula_structural   LiF
_chemical_formula_sum   'Li25 F25'
_cell_volume   549.51989705
_cell_formula_units_Z   25
loop_
 _symmetry_equiv_pos_site_id
 _symmetry_equiv_pos_as_xyz
  1  'x, y, z'
loop_
 _atom_site_type_symbol
 _atom_site_label
 _atom_site_symmetry_multiplicity
 _atom_site_fract_x
 _atom_site_fract_y
 _atom_site_fract_z
 _atom_site_occupancy
  F  F0  1  0.56059170  0.11525447  0.15231990  1
  F  F1  1  0.88474553  0.44533723  0.15231990  1
  F  F2  1  0.55466277  0.43940830  0.15231990  1
  F  F3  1  0.88474553  0.43940830  0.84768010  1
  F  F4  1  0.55466277  0.11525447  0.84768010  1
  F  F5  1  0.56059170  0.44533723  0.84768010  1
  F  F6  1  0.15410190  0.24061107  0.43991997  1
  F  F7  1  0.75938893  0.91349084  0.43991997  1
  F  F8  1  0.08650916  0.84589810  0.43991997  1
  F  F9  1  0.75938893  0.84589810  0.56008003  1
  F  F10  1  0.08650916  0.24061107  0.56008003  1
  F  F11  1  0.15410190  0.91349084  0.56008003  1
  F  F12  1  0.64931767  0.97266514  0.43876278  1
  F  F13  1  0.02733486  0.67665253  0.43876278  1
  F  F14  1  0.32334747  0.35068233  0.43876278  1
  F  F15  1  0.02733486  0.35068233  0.56123722  1
  F  F16  1  0.32334747  0.97266514  0.56123722  1
  F  F17  1  0.64931767  0.67665253  0.56123722  1
  F  F18  1  0.63547100  0.12571917  0.39453826  1
  F  F19  1  0.87428083  0.50975182  0.39453826  1
  F  F20  1  0.49024818  0.36452900  0.39453826  1
  F  F21  1  0.87428083  0.36452900  0.60546174  1
  F  F22  1  0.49024818  0.12571917  0.60546174  1
  F  F23  1  0.63547100  0.50975182  0.60546174  1
  F  F24  1  0.66666667  0.33333333  0.00000000  1
  Li  Li25  1  0.20599087  0.75586175  0.36568871  1
  Li  Li26  1  -0.75586175  -0.54987088  0.36568871  1
  Li  Li27  1  0.54987088  -0.20599087  0.36568871  1
  Li  Li28  1  -0.75586175  -0.20599087  -0.36568871  1
  Li  Li29  1  0.54987088  0.75586175  -0.36568871  1
  Li  Li30  1  0.20599087  -0.54987088  -0.36568871  1
  Li  Li31  1  0.66666667  0.33333333  0.75443406  1
  Li  Li32  1  0.66666667  0.33333333  0.24556594  1
  Li  Li33  1  0.00000000  0.00000000  0.00000000  1
  Li  Li34  1  0.64025304  0.59612582  0.38320529  1
  Li  Li35  1  0.40387418  0.04412722  0.38320529  1
  Li  Li36  1  0.95587278  0.35974696  0.38320529  1
  Li  Li37  1  0.40387418  0.35974696  0.61679471  1
  Li  Li38  1  0.95587278  0.59612582  0.61679471  1
  Li  Li39  1  0.64025304  0.04412722  0.61679471  1
  Li  Li40  1  0.68803429  0.65468627  0.92335336  1
  Li  Li41  1  0.34531373  0.03334802  0.92335336  1
  Li  Li42  1  0.96665198  0.31196571  0.92335336  1
  Li  Li43  1  0.34531373  0.31196571  0.07664664  1
  Li  Li44  1  0.96665198  0.65468627  0.07664664  1
  Li  Li45  1  0.68803429  0.03334802  0.07664664  1
  Li  Li46  1  0.54507241  0.45492759  0.50000000  1
  Li  Li47  1  0.54507241  0.09014483  0.50000000  1
  Li  Li48  1  0.90985517  0.45492759  0.50000000  1
  Li  Li49  1  0.33333333  0.66666667  0.00000000  1
