# generated using pymatgen
data_Li2Ca3F8
_symmetry_space_group_name_H-M   'P 1'
_cell_length_a   12.35151775
_cell_length_b   12.35151775
_cell_length_c   11.77195008
_cell_angle_alpha   90.00000000
_cell_angle_beta   90.00000000
_cell_angle_gamma   120.00000000
_symmetry_Int_Tables_number   1
_chemical_formula_structural   Li2Ca3F8
_chemical_formula_sum   'Li16 Ca24 F64'
_cell_volume   1555.31978712
_cell_formula_units_Z   8
loop_
 _symmetry_equiv_pos_site_id
 _symmetry_equiv_pos_as_xyz
  1  'x, y, z'
loop_
 _atom_site_type_symbol
 _atom_site_label
 _atom_site_symmetry_multiplicity
 _atom_site_fract_x
 _atom_site_fract_y
 _atom_site_fract_z
 _atom_site_occupancy
  Ca  Ca0  1  0.72419746  0.27580254  0.00000000  1
  Ca  Ca1  1  0.72419746  0.44839491  0.00000000  1
  Ca  Ca2  1  0.55160509  0.27580254  0.00000000  1
  Ca  Ca3  1  0.15903950  0.84950290  0.83085331  1
  Ca  Ca4  1  0.15049710  0.30953660  0.83085331  1
  Ca  Ca5  1  0.69046340  0.84096050  0.83085331  1
  Ca  Ca6  1  0.15049710  0.84096050  0.16914669  1
  Ca  Ca7  1  0.69046340  0.84950290  0.16914669  1
  Ca  Ca8  1  0.15903950  0.30953660  0.16914669  1
  Ca  Ca9  1  0.20533198  0.07223581  0.83326935  1
  Ca  Ca10  1  0.92776419  0.13309616  0.83326935  1
  Ca  Ca11  1  0.86690384  0.79466802  0.83326935  1
  Ca  Ca12  1  0.92776419  0.79466802  0.16673065  1
  Ca  Ca13  1  0.86690384  0.07223581  0.16673065  1
  Ca  Ca14  1  0.20533198  0.13309616  0.16673065  1
  Ca  Ca15  1  0.82952529  0.17047471  0.50000000  1
  Ca  Ca16  1  0.82952529  0.65905059  0.50000000  1
  Ca  Ca17  1  0.34094941  0.17047471  0.50000000  1
  Ca  Ca18  1  0.08734782  0.38648585  0.28112644  1
  Ca  Ca19  1  0.61351415  0.70086197  0.28112644  1
  Ca  Ca20  1  0.29913803  0.91265218  0.28112644  1
  Ca  Ca21  1  0.61351415  0.91265218  0.71887356  1
  Ca  Ca22  1  0.29913803  0.38648585  0.71887356  1
  Ca  Ca23  1  0.08734782  0.70086197  0.71887356  1
  F  F24  1  0.84497338  0.33393956  0.37644344  1
  F  F25  1  -0.33393956  0.51103382  0.37644344  1
  F  F26  1  -0.51103382  -0.84497338  0.37644344  1
  F  F27  1  -0.33393956  -0.84497338  -0.37644344  1
  F  F28  1  -0.51103382  0.33393956  -0.37644344  1
  F  F29  1  0.84497338  0.51103382  -0.37644344  1
  F  F30  1  0.33333333  0.66666667  0.00000000  1
  F  F31  1  0.00000000  0.00000000  0.13061518  1
  F  F32  1  0.00000000  0.00000000  0.86938482  1
  F  F33  1  0.94230827  0.07860850  0.35942920  1
  F  F34  1  0.92139150  0.86369977  0.35942920  1
  F  F35  1  0.13630023  0.05769173  0.35942920  1
  F  F36  1  0.92139150  0.05769173  0.64057080  1
  F  F37  1  0.13630023  0.07860850  0.64057080  1
  F  F38  1  0.94230827  0.86369977  0.64057080  1
  F  F39  1  0.69065306  0.19618849  0.43271750  1
  F  F40  1  0.80381151  0.49446458  0.43271750  1
  F  F41  1  0.50553542  0.30934694  0.43271750  1
  F  F42  1  0.80381151  0.30934694  0.56728250  1
  F  F43  1  0.50553542  0.19618849  0.56728250  1
  F  F44  1  0.69065306  0.49446458  0.56728250  1
  F  F45  1  0.64557816  0.27649032  0.70519991  1
  F  F46  1  0.72350968  0.36908784  0.70519991  1
  F  F47  1  0.63091216  0.35442184  0.70519991  1
  F  F48  1  0.72350968  0.35442184  0.29480009  1
  F  F49  1  0.63091216  0.27649032  0.29480009  1
  F  F50  1  0.64557816  0.36908784  0.29480009  1
  F  F51  1  0.25927358  0.66555307  0.74473932  1
  F  F52  1  0.33444693  0.59372051  0.74473932  1
  F  F53  1  0.40627949  0.74072642  0.74473932  1
  F  F54  1  0.33444693  0.74072642  0.25526068  1
  F  F55  1  0.40627949  0.66555307  0.25526068  1
  F  F56  1  0.25927358  0.59372051  0.25526068  1
  F  F57  1  0.33333333  0.66666667  0.50000000  1
  F  F58  1  0.25179284  0.74820716  0.50000000  1
  F  F59  1  0.25179284  0.50358569  0.50000000  1
  F  F60  1  0.49641431  0.74820716  0.50000000  1
  F  F61  1  0.86394819  0.22489630  0.35046923  1
  F  F62  1  0.77510370  0.63905189  0.35046923  1
  F  F63  1  0.36094811  0.13605181  0.35046923  1
  F  F64  1  0.77510370  0.13605181  0.64953077  1
  F  F65  1  0.36094811  0.22489630  0.64953077  1
  F  F66  1  0.86394819  0.63905189  0.64953077  1
  F  F67  1  0.44823231  0.85283151  0.71655384  1
  F  F68  1  0.14716849  0.59540081  0.71655384  1
  F  F69  1  0.40459919  0.55176769  0.71655384  1
  F  F70  1  0.14716849  0.55176769  0.28344616  1
  F  F71  1  0.40459919  0.85283151  0.28344616  1
  F  F72  1  0.44823231  0.59540081  0.28344616  1
  F  F73  1  0.17673665  0.50399611  0.91923459  1
  F  F74  1  0.49600389  0.67274054  0.91923459  1
  F  F75  1  0.32725946  0.82326335  0.91923459  1
  F  F76  1  0.49600389  0.82326335  0.08076541  1
  F  F77  1  0.32725946  0.50399611  0.08076541  1
  F  F78  1  0.17673665  0.67274054  0.08076541  1
  F  F79  1  0.91159734  0.39839916  0.42348871  1
  F  F80  1  0.60160084  0.51319818  0.42348871  1
  F  F81  1  0.48680182  0.08840266  0.42348871  1
  F  F82  1  0.60160084  0.08840266  0.57651129  1
  F  F83  1  0.48680182  0.39839916  0.57651129  1
  F  F84  1  0.91159734  0.51319818  0.57651129  1
  F  F85  1  0.06158038  0.93841962  0.50000000  1
  F  F86  1  0.06158038  0.12316077  0.50000000  1
  F  F87  1  0.87683923  0.93841962  0.50000000  1
  Li  Li88  1  0.46230111  0.43297088  0.95429392  1
  Li  Li89  1  0.56702912  0.02933023  0.95429392  1
  Li  Li90  1  0.97066977  0.53769889  0.95429392  1
  Li  Li91  1  0.56702912  0.53769889  0.04570608  1
  Li  Li92  1  0.97066977  0.43297088  0.04570608  1
  Li  Li93  1  0.46230111  0.02933023  0.04570608  1
  Li  Li94  1  0.66666667  0.33333333  0.83040183  1
  Li  Li95  1  0.66666667  0.33333333  0.16959817  1
  Li  Li96  1  0.82014727  0.17985273  -0.00000000  1
  Li  Li97  1  0.82014727  0.64029453  -0.00000000  1
  Li  Li98  1  0.35970547  0.17985273  0.00000000  1
  Li  Li99  1  0.66666667  0.33333333  0.50000000  1
  Li  Li100  1  0.96247642  0.03752358  0.50000000  1
  Li  Li101  1  0.96247642  0.92495285  0.50000000  1
  Li  Li102  1  0.07504715  0.03752358  0.50000000  1
  Li  Li103  1  0.00000000  0.00000000  0.00000000  1
