# generated using pymatgen
data_LiF
_symmetry_space_group_name_H-M   'P 1'
_cell_length_a   5.72557632
_cell_length_b   14.62172793
_cell_length_c   8.71242640
_cell_angle_alpha   90.00000000
_cell_angle_beta   90.00000000
_cell_angle_gamma   90.00000000
_symmetry_Int_Tables_number   1
_chemical_formula_structural   LiF
_chemical_formula_sum   'Li22 F22'
_cell_volume   729.38533819
_cell_formula_units_Z   22
loop_
 _symmetry_equiv_pos_site_id
 _symmetry_equiv_pos_as_xyz
  1  'x, y, z'
loop_
 _atom_site_type_symbol
 _atom_site_label
 _atom_site_symmetry_multiplicity
 _atom_site_fract_x
 _atom_site_fract_y
 _atom_site_fract_z
 _atom_site_occupancy
  F  F0  1  0.00000000  0.00000000  0.50000000  1
  F  F1  1  0.50000000  0.50000000  0.50000000  1
  F  F2  1  0.73033141  0.85621689  0.38273714  1
  F  F3  1  -0.73033141  -0.85621689  0.38273714  1
  F  F4  1  -0.23033141  1.35621689  -0.38273714  1
  F  F5  1  1.23033141  -0.35621689  -0.38273714  1
  F  F6  1  -0.73033141  -0.85621689  -0.38273714  1
  F  F7  1  0.73033141  0.85621689  -0.38273714  1
  F  F8  1  1.23033141  -0.35621689  0.38273714  1
  F  F9  1  -0.23033141  1.35621689  0.38273714  1
  F  F10  1  0.02632118  0.92651051  0.07983527  1
  F  F11  1  0.97367882  0.07348949  0.07983527  1
  F  F12  1  0.47367882  0.42651051  0.92016473  1
  F  F13  1  0.52632118  0.57348949  0.92016473  1
  F  F14  1  0.97367882  0.07348949  0.92016473  1
  F  F15  1  0.02632118  0.92651051  0.92016473  1
  F  F16  1  0.52632118  0.57348949  0.07983527  1
  F  F17  1  0.47367882  0.42651051  0.07983527  1
  F  F18  1  0.00000000  0.50000000  0.17546468  1
  F  F19  1  0.50000000  0.00000000  0.82453532  1
  F  F20  1  0.00000000  0.50000000  0.82453532  1
  F  F21  1  0.50000000  0.00000000  0.17546468  1
  Li  Li22  1  0.81727224  0.47800807  0.86244032  1
  Li  Li23  1  0.18272776  0.52199193  0.86244032  1
  Li  Li24  1  0.68272776  0.97800807  0.13755968  1
  Li  Li25  1  0.31727224  0.02199193  0.13755968  1
  Li  Li26  1  0.18272776  0.52199193  0.13755968  1
  Li  Li27  1  0.81727224  0.47800807  0.13755968  1
  Li  Li28  1  0.31727224  0.02199193  0.86244032  1
  Li  Li29  1  0.68272776  0.97800807  0.86244032  1
  Li  Li30  1  0.48570645  0.05000155  -0.00000000  1
  Li  Li31  1  0.51429355  0.94999845  -0.00000000  1
  Li  Li32  1  0.01429355  0.55000155  0.00000000  1
  Li  Li33  1  0.98570645  0.44999845  0.00000000  1
  Li  Li34  1  0.89538886  0.27726343  0.50000000  1
  Li  Li35  1  0.10461114  0.72273657  0.50000000  1
  Li  Li36  1  0.60461114  0.77726343  0.50000000  1
  Li  Li37  1  0.39538886  0.22273657  0.50000000  1
  Li  Li38  1  0.16561438  0.36337302  0.00000000  1
  Li  Li39  1  0.83438562  0.63662698  0.00000000  1
  Li  Li40  1  0.33438562  0.86337302  -0.00000000  1
  Li  Li41  1  0.66561438  0.13662698  0.00000000  1
  Li  Li42  1  0.00000000  0.00000000  0.00000000  1
  Li  Li43  1  0.50000000  0.50000000  0.00000000  1
