# generated using pymatgen
data_LiF
_symmetry_space_group_name_H-M   'P 1'
_cell_length_a   4.91323852
_cell_length_b   8.17546454
_cell_length_c   9.11500508
_cell_angle_alpha   90.00000000
_cell_angle_beta   90.00000000
_cell_angle_gamma   90.00000000
_symmetry_Int_Tables_number   1
_chemical_formula_structural   LiF
_chemical_formula_sum   'Li14 F14'
_cell_volume   366.13159065
_cell_formula_units_Z   14
loop_
 _symmetry_equiv_pos_site_id
 _symmetry_equiv_pos_as_xyz
  1  'x, y, z'
loop_
 _atom_site_type_symbol
 _atom_site_label
 _atom_site_symmetry_multiplicity
 _atom_site_fract_x
 _atom_site_fract_y
 _atom_site_fract_z
 _atom_site_occupancy
  F  F0  1  0.00000000  0.50000000  0.50000000  1
  F  F1  1  0.50000000  0.00000000  0.00000000  1
  F  F2  1  0.05862206  0.54333509  0.00000000  1
  F  F3  1  0.94137794  0.45666491  -0.00000000  1
  F  F4  1  0.44137794  0.04333509  0.50000000  1
  F  F5  1  0.55862206  0.95666491  0.50000000  1
  F  F6  1  0.48713225  0.36358768  0.18069647  1
  F  F7  1  -0.48713225  -0.36358768  0.18069647  1
  F  F8  1  0.01286775  0.86358768  0.31930353  1
  F  F9  1  0.98713225  0.13641232  0.31930353  1
  F  F10  1  -0.48713225  -0.36358768  -0.18069647  1
  F  F11  1  0.48713225  0.36358768  -0.18069647  1
  F  F12  1  0.98713225  0.13641232  0.68069647  1
  F  F13  1  0.01286775  0.86358768  0.68069647  1
  Li  Li14  1  0.25223756  0.99291288  0.40423885  1
  Li  Li15  1  0.74776244  0.00708712  0.40423885  1
  Li  Li16  1  0.24776244  0.49291288  0.09576115  1
  Li  Li17  1  0.75223756  0.50708712  0.09576115  1
  Li  Li18  1  0.74776244  0.00708712  0.59576115  1
  Li  Li19  1  0.25223756  0.99291288  0.59576115  1
  Li  Li20  1  0.75223756  0.50708712  0.90423885  1
  Li  Li21  1  0.24776244  0.49291288  0.90423885  1
  Li  Li22  1  0.00000000  0.00000000  0.50000000  1
  Li  Li23  1  0.50000000  0.50000000  0.00000000  1
  Li  Li24  1  0.76525205  0.29533029  -0.00000000  1
  Li  Li25  1  0.23474795  0.70466971  0.00000000  1
  Li  Li26  1  0.73474795  0.79533029  0.50000000  1
  Li  Li27  1  0.26525205  0.20466971  0.50000000  1
