# generated using pymatgen
data_LiF
_symmetry_space_group_name_H-M   'P 1'
_cell_length_a   15.33206764
_cell_length_b   6.16823377
_cell_length_c   8.42825750
_cell_angle_alpha   90.00000000
_cell_angle_beta   90.00000000
_cell_angle_gamma   90.00000000
_symmetry_Int_Tables_number   1
_chemical_formula_structural   LiF
_chemical_formula_sum   'Li24 F24'
_cell_volume   797.07529202
_cell_formula_units_Z   24
loop_
 _symmetry_equiv_pos_site_id
 _symmetry_equiv_pos_as_xyz
  1  'x, y, z'
loop_
 _atom_site_type_symbol
 _atom_site_label
 _atom_site_symmetry_multiplicity
 _atom_site_fract_x
 _atom_site_fract_y
 _atom_site_fract_z
 _atom_site_occupancy
  F  F0  1  0.88037831  0.32799292  0.38267612  1
  F  F1  1  -0.38037831  -0.32799292  0.88267612  1
  F  F2  1  -0.88037831  0.82799292  -0.38267612  1
  F  F3  1  1.38037831  0.17200708  0.11732388  1
  F  F4  1  -0.88037831  -0.32799292  -0.38267612  1
  F  F5  1  1.38037831  0.32799292  0.11732388  1
  F  F6  1  0.88037831  0.17200708  0.38267612  1
  F  F7  1  -0.38037831  0.82799292  0.88267612  1
  F  F8  1  0.42743183  0.01113463  0.62529318  1
  F  F9  1  0.07256817  0.98886537  0.12529318  1
  F  F10  1  0.57256817  0.51113463  0.37470682  1
  F  F11  1  0.92743183  0.48886537  0.87470682  1
  F  F12  1  0.57256817  0.98886537  0.37470682  1
  F  F13  1  0.92743183  0.01113463  0.87470682  1
  F  F14  1  0.42743183  0.48886537  0.62529318  1
  F  F15  1  0.07256817  0.51113463  0.12529318  1
  F  F16  1  0.08467337  0.42225143  0.01952584  1
  F  F17  1  0.41532663  0.57774857  0.51952584  1
  F  F18  1  0.91532663  0.92225143  0.98047416  1
  F  F19  1  0.58467337  0.07774857  0.48047416  1
  F  F20  1  0.91532663  0.57774857  0.98047416  1
  F  F21  1  0.58467337  0.42225143  0.48047416  1
  F  F22  1  0.08467337  0.07774857  0.01952584  1
  F  F23  1  0.41532663  0.92225143  0.51952584  1
  Li  Li24  1  0.00000000  0.00000000  0.00000000  1
  Li  Li25  1  0.50000000  0.00000000  0.50000000  1
  Li  Li26  1  0.00000000  0.50000000  0.00000000  1
  Li  Li27  1  0.50000000  0.50000000  0.50000000  1
  Li  Li28  1  0.77986337  0.25000000  0.67620073  1
  Li  Li29  1  0.72013663  0.75000000  0.17620073  1
  Li  Li30  1  0.22013663  0.75000000  0.32379927  1
  Li  Li31  1  0.27986337  0.25000000  0.82379927  1
  Li  Li32  1  0.35776877  0.25000000  0.57470693  1
  Li  Li33  1  0.14223123  0.75000000  0.07470693  1
  Li  Li34  1  0.64223123  0.75000000  0.42529307  1
  Li  Li35  1  0.85776877  0.25000000  0.92529307  1
  Li  Li36  1  0.49608569  0.25000000  0.68160828  1
  Li  Li37  1  0.00391431  0.75000000  0.18160828  1
  Li  Li38  1  0.50391431  0.75000000  0.31839172  1
  Li  Li39  1  0.99608569  0.25000000  0.81839172  1
  Li  Li40  1  0.00000000  0.00000000  0.50000000  1
  Li  Li41  1  0.50000000  0.00000000  0.00000000  1
  Li  Li42  1  0.00000000  0.50000000  0.50000000  1
  Li  Li43  1  0.50000000  0.50000000  0.00000000  1
  Li  Li44  1  0.70850940  0.25000000  0.07660976  1
  Li  Li45  1  0.79149060  0.75000000  0.57660976  1
  Li  Li46  1  0.29149060  0.75000000  0.92339024  1
  Li  Li47  1  0.20850940  0.25000000  0.42339024  1
