# generated using pymatgen
data_LiF
_symmetry_space_group_name_H-M   'P 1'
_cell_length_a   9.64028184
_cell_length_b   9.64028184
_cell_length_c   4.16077143
_cell_angle_alpha   90.00000000
_cell_angle_beta   90.00000000
_cell_angle_gamma   120.00000000
_symmetry_Int_Tables_number   1
_chemical_formula_structural   LiF
_chemical_formula_sum   'Li18 F18'
_cell_volume   334.87594488
_cell_formula_units_Z   18
loop_
 _symmetry_equiv_pos_site_id
 _symmetry_equiv_pos_as_xyz
  1  'x, y, z'
loop_
 _atom_site_type_symbol
 _atom_site_label
 _atom_site_symmetry_multiplicity
 _atom_site_fract_x
 _atom_site_fract_y
 _atom_site_fract_z
 _atom_site_occupancy
  F  F0  1  0.00000000  0.00000000  0.25000000  1
  F  F1  1  0.00000000  0.00000000  0.75000000  1
  F  F2  1  0.18818139  0.30231982  0.25000000  1
  F  F3  1  -0.30231982  -0.11413843  0.25000000  1
  F  F4  1  0.11413843  -0.18818139  0.25000000  1
  F  F5  1  -0.18818139  -0.30231982  0.75000000  1
  F  F6  1  0.30231982  0.11413843  0.75000000  1
  F  F7  1  -0.11413843  0.18818139  0.75000000  1
  F  F8  1  0.00000000  0.00000000  0.00000000  1
  F  F9  1  0.00000000  0.00000000  0.50000000  1
  F  F10  1  0.30737428  0.43484039  0.25000000  1
  F  F11  1  0.56515961  0.87253389  0.25000000  1
  F  F12  1  0.12746611  0.69262572  0.25000000  1
  F  F13  1  0.69262572  0.56515961  0.75000000  1
  F  F14  1  0.43484039  0.12746611  0.75000000  1
  F  F15  1  0.87253389  0.30737428  0.75000000  1
  F  F16  1  0.66666667  0.33333333  0.25000000  1
  F  F17  1  0.33333333  0.66666667  0.75000000  1
  Li  Li18  1  0.34110932  0.76569453  0.25000000  1
  Li  Li19  1  0.23430547  0.57541479  0.25000000  1
  Li  Li20  1  0.42458521  0.65889068  0.25000000  1
  Li  Li21  1  0.65889068  0.23430547  0.75000000  1
  Li  Li22  1  0.76569453  0.42458521  0.75000000  1
  Li  Li23  1  0.57541479  0.34110932  0.75000000  1
  Li  Li24  1  0.84594547  0.37891155  0.25000000  1
  Li  Li25  1  0.62108845  0.46703392  0.25000000  1
  Li  Li26  1  0.53296608  0.15405453  0.25000000  1
  Li  Li27  1  0.15405453  0.62108845  0.75000000  1
  Li  Li28  1  0.37891155  0.53296608  0.75000000  1
  Li  Li29  1  0.46703392  0.84594547  0.75000000  1
  Li  Li30  1  0.50000000  -0.00000000  0.00000000  1
  Li  Li31  1  0.00000000  0.50000000  -0.00000000  1
  Li  Li32  1  0.50000000  0.50000000  0.00000000  1
  Li  Li33  1  0.50000000  -0.00000000  0.50000000  1
  Li  Li34  1  0.00000000  0.50000000  0.50000000  1
  Li  Li35  1  0.50000000  0.50000000  0.50000000  1
