# generated using pymatgen
data_LiF
_symmetry_space_group_name_H-M   'P 1'
_cell_length_a   8.32213583
_cell_length_b   8.32213583
_cell_length_c   28.49004625
_cell_angle_alpha   90.00000000
_cell_angle_beta   90.00000000
_cell_angle_gamma   120.00000000
_symmetry_Int_Tables_number   1
_chemical_formula_structural   LiF
_chemical_formula_sum   'Li48 F48'
_cell_volume   1708.80846291
_cell_formula_units_Z   48
loop_
 _symmetry_equiv_pos_site_id
 _symmetry_equiv_pos_as_xyz
  1  'x, y, z'
loop_
 _atom_site_type_symbol
 _atom_site_label
 _atom_site_symmetry_multiplicity
 _atom_site_fract_x
 _atom_site_fract_y
 _atom_site_fract_z
 _atom_site_occupancy
  F  F0  1  0.24500788  0.21381387  0.41204917  1
  F  F1  1  -0.21381387  0.03119401  0.41204917  1
  F  F2  1  -0.03119401  -0.24500788  0.41204917  1
  F  F3  1  0.21381387  0.24500788  0.08795083  1
  F  F4  1  0.03119401  -0.21381387  0.08795083  1
  F  F5  1  -0.24500788  -0.03119401  0.08795083  1
  F  F6  1  -0.24500788  -0.21381387  -0.41204917  1
  F  F7  1  0.21381387  -0.03119401  -0.41204917  1
  F  F8  1  0.03119401  0.24500788  -0.41204917  1
  F  F9  1  -0.21381387  -0.24500788  0.91204917  1
  F  F10  1  -0.03119401  0.21381387  0.91204917  1
  F  F11  1  0.24500788  0.03119401  0.91204917  1
  F  F12  1  0.91167455  0.54714721  0.74538251  1
  F  F13  1  0.45285279  0.36452734  0.74538251  1
  F  F14  1  0.63547266  0.08832545  0.74538251  1
  F  F15  1  0.88048054  0.57834122  0.42128416  1
  F  F16  1  0.69786067  0.11951946  0.42128416  1
  F  F17  1  0.42165878  0.30213933  0.42128416  1
  F  F18  1  0.42165878  0.11951946  -0.07871584  1
  F  F19  1  0.88048054  0.30213933  -0.07871584  1
  F  F20  1  0.69786067  0.57834122  -0.07871584  1
  F  F21  1  0.45285279  0.08832545  1.24538251  1
  F  F22  1  0.63547266  0.54714721  1.24538251  1
  F  F23  1  0.91167455  0.36452734  1.24538251  1
  F  F24  1  0.57834122  0.88048054  1.07871584  1
  F  F25  1  0.11951946  0.69786067  1.07871584  1
  F  F26  1  0.30213933  0.42165878  1.07871584  1
  F  F27  1  0.54714721  0.91167455  0.75461749  1
  F  F28  1  0.36452734  0.45285279  0.75461749  1
  F  F29  1  0.08832545  0.63547266  0.75461749  1
  F  F30  1  0.08832545  0.45285279  0.25461749  1
  F  F31  1  0.54714721  0.63547266  0.25461749  1
  F  F32  1  0.36452734  0.91167455  0.25461749  1
  F  F33  1  0.11951946  0.42165878  1.57871584  1
  F  F34  1  0.30213933  0.88048054  1.57871584  1
  F  F35  1  0.57834122  0.69786067  1.57871584  1
  F  F36  1  0.00000000  0.00000000  0.25000000  1
  F  F37  1  0.00000000  0.00000000  0.75000000  1
  F  F38  1  0.66666667  0.33333333  0.58333333  1
  F  F39  1  0.66666667  0.33333333  0.08333333  1
  F  F40  1  0.33333333  0.66666667  0.91666667  1
  F  F41  1  0.33333333  0.66666667  0.41666667  1
  F  F42  1  0.00000000  0.00000000  0.00000000  1
  F  F43  1  0.00000000  0.00000000  0.50000000  1
  F  F44  1  0.66666667  0.33333333  0.33333333  1
  F  F45  1  0.66666667  0.33333333  0.83333333  1
  F  F46  1  0.33333333  0.66666667  0.66666667  1
  F  F47  1  0.33333333  0.66666667  0.16666667  1
  Li  Li48  1  0.42204883  0.10824354  0.70902087  1
  Li  Li49  1  0.89175646  0.31380530  0.70902087  1
  Li  Li50  1  0.68619470  0.57795117  0.70902087  1
  Li  Li51  1  0.10824354  0.42204883  0.79097913  1
  Li  Li52  1  0.31380530  0.89175646  0.79097913  1
  Li  Li53  1  0.57795117  0.68619470  0.79097913  1
  Li  Li54  1  0.57795117  0.89175646  0.29097913  1
  Li  Li55  1  0.10824354  0.68619470  0.29097913  1
  Li  Li56  1  0.31380530  0.42204883  0.29097913  1
  Li  Li57  1  0.89175646  0.57795117  0.20902087  1
  Li  Li58  1  0.68619470  0.10824354  0.20902087  1
  Li  Li59  1  0.42204883  0.31380530  0.20902087  1
  Li  Li60  1  0.08871550  0.44157687  0.04235421  1
  Li  Li61  1  0.55842313  0.64713863  0.04235421  1
  Li  Li62  1  0.35286137  0.91128450  0.04235421  1
  Li  Li63  1  0.77491020  0.75538217  0.12431246  1
  Li  Li64  1  0.98047196  0.22508980  0.12431246  1
  Li  Li65  1  0.24461783  0.01952804  0.12431246  1
  Li  Li66  1  0.24461783  0.22508980  0.62431246  1
  Li  Li67  1  0.77491020  0.01952804  0.62431246  1
  Li  Li68  1  0.98047196  0.75538217  0.62431246  1
  Li  Li69  1  0.55842313  0.91128450  0.54235421  1
  Li  Li70  1  0.35286137  0.44157687  0.54235421  1
  Li  Li71  1  0.08871550  0.64713863  0.54235421  1
  Li  Li72  1  0.75538217  0.77491020  0.37568754  1
  Li  Li73  1  0.22508980  0.98047196  0.37568754  1
  Li  Li74  1  0.01952804  0.24461783  0.37568754  1
  Li  Li75  1  0.44157687  0.08871550  0.45764579  1
  Li  Li76  1  0.64713863  0.55842313  0.45764579  1
  Li  Li77  1  0.91128450  0.35286137  0.45764579  1
  Li  Li78  1  0.91128450  0.55842313  0.95764579  1
  Li  Li79  1  0.44157687  0.35286137  0.95764579  1
  Li  Li80  1  0.64713863  0.08871550  0.95764579  1
  Li  Li81  1  0.22508980  0.24461783  0.87568754  1
  Li  Li82  1  0.01952804  0.77491020  0.87568754  1
  Li  Li83  1  0.75538217  0.98047196  0.87568754  1
  Li  Li84  1  0.00000000  0.00000000  0.61608322  1
  Li  Li85  1  0.00000000  0.00000000  0.88391678  1
  Li  Li86  1  0.00000000  0.00000000  0.38391678  1
  Li  Li87  1  0.00000000  0.00000000  0.11608322  1
  Li  Li88  1  0.66666667  0.33333333  0.94941655  1
  Li  Li89  1  0.66666667  0.33333333  0.21725011  1
  Li  Li90  1  0.66666667  0.33333333  0.71725011  1
  Li  Li91  1  0.66666667  0.33333333  0.44941655  1
  Li  Li92  1  0.33333333  0.66666667  0.28274989  1
  Li  Li93  1  0.33333333  0.66666667  0.55058345  1
  Li  Li94  1  0.33333333  0.66666667  0.05058345  1
  Li  Li95  1  0.33333333  0.66666667  0.78274989  1
