# generated using pymatgen
data_LiF
_symmetry_space_group_name_H-M   'P 1'
_cell_length_a   7.82247498
_cell_length_b   9.22169136
_cell_length_c   6.81351424
_cell_angle_alpha   90.00000000
_cell_angle_beta   90.00000000
_cell_angle_gamma   90.00000000
_symmetry_Int_Tables_number   1
_chemical_formula_structural   LiF
_chemical_formula_sum   'Li16 F16'
_cell_volume   491.50272931
_cell_formula_units_Z   16
loop_
 _symmetry_equiv_pos_site_id
 _symmetry_equiv_pos_as_xyz
  1  'x, y, z'
loop_
 _atom_site_type_symbol
 _atom_site_label
 _atom_site_symmetry_multiplicity
 _atom_site_fract_x
 _atom_site_fract_y
 _atom_site_fract_z
 _atom_site_occupancy
  F  F0  1  0.66853831  0.84731592  0.50000000  1
  F  F1  1  0.33146169  0.15268408  0.50000000  1
  F  F2  1  0.83146169  0.34731592  0.50000000  1
  F  F3  1  0.16853831  0.65268408  0.50000000  1
  F  F4  1  0.42621607  0.66472932  0.83173756  1
  F  F5  1  -0.42621607  -0.66472932  0.83173756  1
  F  F6  1  0.07378393  1.16472932  -0.83173756  1
  F  F7  1  0.92621607  -0.16472932  -0.83173756  1
  F  F8  1  -0.42621607  -0.66472932  -0.83173756  1
  F  F9  1  0.42621607  0.66472932  -0.83173756  1
  F  F10  1  0.92621607  -0.16472932  0.83173756  1
  F  F11  1  0.07378393  1.16472932  0.83173756  1
  F  F12  1  0.00000000  0.50000000  0.69102712  1
  F  F13  1  0.50000000  0.00000000  0.30897288  1
  F  F14  1  0.00000000  0.50000000  0.30897288  1
  F  F15  1  0.50000000  0.00000000  0.69102712  1
  Li  Li16  1  0.00000000  0.00000000  0.50000000  1
  Li  Li17  1  0.50000000  0.50000000  0.50000000  1
  Li  Li18  1  0.28059356  0.47729237  0.00000000  1
  Li  Li19  1  0.71940644  0.52270763  0.00000000  1
  Li  Li20  1  0.21940644  0.97729237  0.00000000  1
  Li  Li21  1  0.78059356  0.02270763  0.00000000  1
  Li  Li22  1  0.58010074  0.04822764  0.50000000  1
  Li  Li23  1  0.41989926  0.95177236  0.50000000  1
  Li  Li24  1  0.91989926  0.54822764  0.50000000  1
  Li  Li25  1  0.08010074  0.45177236  0.50000000  1
  Li  Li26  1  0.00000000  0.50000000  0.83940414  1
  Li  Li27  1  0.50000000  0.00000000  0.16059586  1
  Li  Li28  1  0.00000000  0.50000000  0.16059586  1
  Li  Li29  1  0.50000000  0.00000000  0.83940414  1
  Li  Li30  1  0.00000000  0.00000000  0.00000000  1
  Li  Li31  1  0.50000000  0.50000000  0.00000000  1
