# generated using pymatgen
data_LiF
_symmetry_space_group_name_H-M   'P 1'
_cell_length_a   6.64263997
_cell_length_b   6.64263997
_cell_length_c   14.62928229
_cell_angle_alpha   90.00000000
_cell_angle_beta   90.00000000
_cell_angle_gamma   120.00000000
_symmetry_Int_Tables_number   1
_chemical_formula_structural   LiF
_chemical_formula_sum   'Li33 F33'
_cell_volume   559.02995712
_cell_formula_units_Z   33
loop_
 _symmetry_equiv_pos_site_id
 _symmetry_equiv_pos_as_xyz
  1  'x, y, z'
loop_
 _atom_site_type_symbol
 _atom_site_label
 _atom_site_symmetry_multiplicity
 _atom_site_fract_x
 _atom_site_fract_y
 _atom_site_fract_z
 _atom_site_occupancy
  F  F0  1  0.00000000  0.00000000  0.05865997  1
  F  F1  1  0.00000000  0.00000000  0.94134003  1
  F  F2  1  0.90061402  0.43017047  0.68837612  1
  F  F3  1  0.56982953  0.47044355  0.68837612  1
  F  F4  1  0.52955645  0.09938598  0.68837612  1
  F  F5  1  0.56982953  0.09938598  0.31162388  1
  F  F6  1  0.52955645  0.43017047  0.31162388  1
  F  F7  1  0.90061402  0.47044355  0.31162388  1
  F  F8  1  0.14196413  0.56837180  0.68559204  1
  F  F9  1  0.43162820  0.57359233  0.68559204  1
  F  F10  1  0.42640767  0.85803587  0.68559204  1
  F  F11  1  0.43162820  0.85803587  0.31440796  1
  F  F12  1  0.42640767  0.56837180  0.31440796  1
  F  F13  1  0.14196413  0.57359233  0.31440796  1
  F  F14  1  0.21026763  0.83582754  0.69007738  1
  F  F15  1  0.16417246  0.37444009  0.69007738  1
  F  F16  1  0.62555991  0.78973237  0.69007738  1
  F  F17  1  0.16417246  0.78973237  0.30992262  1
  F  F18  1  0.62555991  0.83582754  0.30992262  1
  F  F19  1  0.21026763  0.37444009  0.30992262  1
  F  F20  1  0.33333333  0.66666667  0.50000000  1
  F  F21  1  0.92023545  0.74055592  0.59748196  1
  F  F22  1  0.25944408  0.17967953  0.59748196  1
  F  F23  1  0.82032047  0.07976455  0.59748196  1
  F  F24  1  0.25944408  0.07976455  0.40251804  1
  F  F25  1  0.82032047  0.74055592  0.40251804  1
  F  F26  1  0.92023545  0.17967953  0.40251804  1
  F  F27  1  0.31107265  0.06887016  0.52066482  1
  F  F28  1  0.93112984  0.24220249  0.52066482  1
  F  F29  1  0.75779751  0.68892735  0.52066482  1
  F  F30  1  0.93112984  0.68892735  0.47933518  1
  F  F31  1  0.75779751  0.06887016  0.47933518  1
  F  F32  1  0.31107265  0.24220249  0.47933518  1
  Li  Li33  1  0.33333333  0.66666667  0.00000000  1
  Li  Li34  1  0.66666667  0.33333333  0.14603526  1
  Li  Li35  1  0.66666667  0.33333333  0.85396474  1
  Li  Li36  1  0.00000000  0.00000000  0.35244609  1
  Li  Li37  1  0.00000000  0.00000000  0.64755391  1
  Li  Li38  1  0.20342149  0.79657851  0.50000000  1
  Li  Li39  1  0.20342149  0.40684298  0.50000000  1
  Li  Li40  1  0.59315702  0.79657851  0.50000000  1
  Li  Li41  1  0.05796502  0.68243011  0.21531193  1
  Li  Li42  1  -0.68243011  -0.62446509  0.21531193  1
  Li  Li43  1  0.62446509  -0.05796502  0.21531193  1
  Li  Li44  1  -0.68243011  -0.05796502  -0.21531193  1
  Li  Li45  1  0.62446509  0.68243011  -0.21531193  1
  Li  Li46  1  0.05796502  -0.62446509  -0.21531193  1
  Li  Li47  1  0.73296186  0.67830178  0.96054967  1
  Li  Li48  1  0.32169822  0.05466008  0.96054967  1
  Li  Li49  1  0.94533992  0.26703814  0.96054967  1
  Li  Li50  1  0.32169822  0.26703814  0.03945033  1
  Li  Li51  1  0.94533992  0.67830178  0.03945033  1
  Li  Li52  1  0.73296186  0.05466008  0.03945033  1
  Li  Li53  1  0.23800657  0.13566591  0.89580376  1
  Li  Li54  1  0.86433409  0.10234067  0.89580376  1
  Li  Li55  1  0.89765933  0.76199343  0.89580376  1
  Li  Li56  1  0.86433409  0.76199343  0.10419624  1
  Li  Li57  1  0.89765933  0.13566591  0.10419624  1
  Li  Li58  1  0.23800657  0.10234067  0.10419624  1
  Li  Li59  1  0.46877780  0.62928642  0.93405288  1
  Li  Li60  1  0.37071358  0.83949138  0.93405288  1
  Li  Li61  1  0.16050862  0.53122220  0.93405288  1
  Li  Li62  1  0.37071358  0.53122220  0.06594712  1
  Li  Li63  1  0.16050862  0.62928642  0.06594712  1
  Li  Li64  1  0.46877780  0.83949138  0.06594712  1
  Li  Li65  1  0.00000000  0.00000000  0.50000000  1
