# generated using pymatgen
data_LiF
_symmetry_space_group_name_H-M   'P 1'
_cell_length_a   13.28652433
_cell_length_b   13.28652433
_cell_length_c   5.81032909
_cell_angle_alpha   90.00000000
_cell_angle_beta   90.00000000
_cell_angle_gamma   120.00000000
_symmetry_Int_Tables_number   1
_chemical_formula_structural   LiF
_chemical_formula_sum   'Li27 F27'
_cell_volume   888.28869935
_cell_formula_units_Z   27
loop_
 _symmetry_equiv_pos_site_id
 _symmetry_equiv_pos_as_xyz
  1  'x, y, z'
loop_
 _atom_site_type_symbol
 _atom_site_label
 _atom_site_symmetry_multiplicity
 _atom_site_fract_x
 _atom_site_fract_y
 _atom_site_fract_z
 _atom_site_occupancy
  F  F0  1  0.00000000  0.00000000  0.00000000  1
  F  F1  1  0.99395087  0.44379983  0.09763734  1
  F  F2  1  0.55620017  0.55015104  0.09763734  1
  F  F3  1  0.44984896  0.00604913  0.09763734  1
  F  F4  1  0.55620017  0.00604913  0.90236266  1
  F  F5  1  0.44984896  0.44379983  0.90236266  1
  F  F6  1  0.99395087  0.55015104  0.90236266  1
  F  F7  1  0.60743190  0.19893803  0.70670706  1
  F  F8  1  0.80106197  0.40849387  0.70670706  1
  F  F9  1  0.59150613  0.39256810  0.70670706  1
  F  F10  1  0.80106197  0.39256810  0.29329294  1
  F  F11  1  0.59150613  0.19893803  0.29329294  1
  F  F12  1  0.60743190  0.40849387  0.29329294  1
  F  F13  1  0.66666667  0.33333333  -0.00000000  1
  F  F14  1  0.75901207  0.78964248  0.37628213  1
  F  F15  1  0.21035752  0.96936959  0.37628213  1
  F  F16  1  0.03063041  0.24098793  0.37628213  1
  F  F17  1  0.21035752  0.24098793  0.62371787  1
  F  F18  1  0.03063041  0.78964248  0.62371787  1
  F  F19  1  0.75901207  0.96936959  0.62371787  1
  F  F20  1  0.47038448  0.47557169  0.66744343  1
  F  F21  1  0.52442831  0.99481279  0.66744343  1
  F  F22  1  0.00518721  0.52961552  0.66744343  1
  F  F23  1  0.52442831  0.52961552  0.33255657  1
  F  F24  1  0.00518721  0.47557169  0.33255657  1
  F  F25  1  0.47038448  0.99481279  0.33255657  1
  F  F26  1  0.00000000  0.00000000  0.50000000  1
  Li  Li27  1  0.82114013  0.17885987  0.50000000  1
  Li  Li28  1  0.82114013  0.64228027  0.50000000  1
  Li  Li29  1  0.35771973  0.17885987  0.50000000  1
  Li  Li30  1  0.67771266  0.88817235  0.39137385  1
  Li  Li31  1  -0.88817235  -0.21045969  0.39137385  1
  Li  Li32  1  0.21045969  -0.67771266  0.39137385  1
  Li  Li33  1  -0.88817235  -0.67771266  -0.39137385  1
  Li  Li34  1  0.21045969  0.88817235  -0.39137385  1
  Li  Li35  1  0.67771266  -0.21045969  -0.39137385  1
  Li  Li36  1  0.33333333  0.66666667  0.32596304  1
  Li  Li37  1  0.33333333  0.66666667  0.67403696  1
  Li  Li38  1  0.24795629  0.75204371  -0.00000000  1
  Li  Li39  1  0.24795629  0.49591258  -0.00000000  1
  Li  Li40  1  0.50408742  0.75204371  0.00000000  1
  Li  Li41  1  0.31360027  0.28998518  0.18771357  1
  Li  Li42  1  0.71001482  0.02361509  0.18771357  1
  Li  Li43  1  0.97638491  0.68639973  0.18771357  1
  Li  Li44  1  0.71001482  0.68639973  0.81228643  1
  Li  Li45  1  0.97638491  0.28998518  0.81228643  1
  Li  Li46  1  0.31360027  0.02361509  0.81228643  1
  Li  Li47  1  0.45960634  0.10593123  0.03137554  1
  Li  Li48  1  0.89406877  0.35367511  0.03137554  1
  Li  Li49  1  0.64632489  0.54039366  0.03137554  1
  Li  Li50  1  0.89406877  0.54039366  0.96862446  1
  Li  Li51  1  0.64632489  0.10593123  0.96862446  1
  Li  Li52  1  0.45960634  0.35367511  0.96862446  1
  Li  Li53  1  0.33333333  0.66666667  0.00000000  1
