# generated using pymatgen
data_LiF
_symmetry_space_group_name_H-M   'P 1'
_cell_length_a   7.94302783
_cell_length_b   7.94302783
_cell_length_c   7.19399726
_cell_angle_alpha   90.00000000
_cell_angle_beta   90.00000000
_cell_angle_gamma   120.00000000
_symmetry_Int_Tables_number   1
_chemical_formula_structural   LiF
_chemical_formula_sum   'Li13 F13'
_cell_volume   393.07286859
_cell_formula_units_Z   13
loop_
 _symmetry_equiv_pos_site_id
 _symmetry_equiv_pos_as_xyz
  1  'x, y, z'
loop_
 _atom_site_type_symbol
 _atom_site_label
 _atom_site_symmetry_multiplicity
 _atom_site_fract_x
 _atom_site_fract_y
 _atom_site_fract_z
 _atom_site_occupancy
  F  F0  1  0.25980575  0.99673859  0.23301874  1
  F  F1  1  0.00326141  0.26306717  0.23301874  1
  F  F2  1  0.73693283  0.74019425  0.23301874  1
  F  F3  1  0.00326141  0.74019425  0.76698126  1
  F  F4  1  0.73693283  0.99673859  0.76698126  1
  F  F5  1  0.25980575  0.26306717  0.76698126  1
  F  F6  1  0.15405979  0.42213607  0.62723262  1
  F  F7  1  0.57786393  0.73192372  0.62723262  1
  F  F8  1  0.26807628  0.84594021  0.62723262  1
  F  F9  1  0.57786393  0.84594021  0.37276738  1
  F  F10  1  0.26807628  0.42213607  0.37276738  1
  F  F11  1  0.15405979  0.73192372  0.37276738  1
  F  F12  1  0.00000000  0.00000000  0.00000000  1
  Li  Li13  1  0.00000000  0.00000000  0.50000000  1
  Li  Li14  1  0.66666667  0.33333333  -0.00000000  1
  Li  Li15  1  0.33333333  0.66666667  0.00000000  1
  Li  Li16  1  0.29314073  0.11252358  0.78972167  1
  Li  Li17  1  -0.11252358  0.18061715  0.78972167  1
  Li  Li18  1  -0.18061715  -0.29314073  0.78972167  1
  Li  Li19  1  -0.11252358  -0.29314073  -0.78972167  1
  Li  Li20  1  -0.18061715  0.11252358  -0.78972167  1
  Li  Li21  1  0.29314073  0.18061715  -0.78972167  1
  Li  Li22  1  0.66666667  0.33333333  0.50000000  1
  Li  Li23  1  0.49483052  0.50516948  -0.00000000  1
  Li  Li24  1  0.49483052  0.98966104  -0.00000000  1
  Li  Li25  1  0.01033896  0.50516948  0.00000000  1
