# generated using pymatgen
data_LiF
_symmetry_space_group_name_H-M   'P 1'
_cell_length_a   6.30106339
_cell_length_b   8.14775631
_cell_length_c   5.46348263
_cell_angle_alpha   90.00000000
_cell_angle_beta   90.00000000
_cell_angle_gamma   90.00000000
_symmetry_Int_Tables_number   1
_chemical_formula_structural   LiF
_chemical_formula_sum   'Li8 F8'
_cell_volume   280.49262457
_cell_formula_units_Z   8
loop_
 _symmetry_equiv_pos_site_id
 _symmetry_equiv_pos_as_xyz
  1  'x, y, z'
loop_
 _atom_site_type_symbol
 _atom_site_label
 _atom_site_symmetry_multiplicity
 _atom_site_fract_x
 _atom_site_fract_y
 _atom_site_fract_z
 _atom_site_occupancy
  F  F0  1  0.26510768  0.98773329  0.50000000  1
  F  F1  1  0.73489232  0.01226671  0.50000000  1
  F  F2  1  0.23489232  0.48773329  0.50000000  1
  F  F3  1  0.76510768  0.51226671  0.50000000  1
  F  F4  1  0.61849108  0.44302549  0.50000000  1
  F  F5  1  0.38150892  0.55697451  0.50000000  1
  F  F6  1  0.88150892  0.94302549  0.50000000  1
  F  F7  1  0.11849108  0.05697451  0.50000000  1
  Li  Li8  1  0.50119590  0.89900668  0.24390966  1
  Li  Li9  1  -0.50119590  -0.89900668  0.24390966  1
  Li  Li10  1  -0.00119590  1.39900668  -0.24390966  1
  Li  Li11  1  1.00119590  -0.39900668  -0.24390966  1
  Li  Li12  1  -0.50119590  -0.89900668  -0.24390966  1
  Li  Li13  1  0.50119590  0.89900668  -0.24390966  1
  Li  Li14  1  1.00119590  -0.39900668  0.24390966  1
  Li  Li15  1  -0.00119590  1.39900668  0.24390966  1
