# generated using pymatgen
data_LiYP2Se
_symmetry_space_group_name_H-M   'P 1'
_cell_length_a   4.21978164
_cell_length_b   4.51134736
_cell_length_c   6.88103391
_cell_angle_alpha   96.11114151
_cell_angle_beta   103.30879573
_cell_angle_gamma   114.54602663
_symmetry_Int_Tables_number   1
_chemical_formula_structural   LiYP2Se
_chemical_formula_sum   'Li2 Y2 P4 Se2'
_cell_volume   112.89311162
_cell_formula_units_Z   2
loop_
 _symmetry_equiv_pos_site_id
 _symmetry_equiv_pos_as_xyz
  1  'x, y, z'
loop_
 _atom_site_type_symbol
 _atom_site_label
 _atom_site_symmetry_multiplicity
 _atom_site_fract_x
 _atom_site_fract_y
 _atom_site_fract_z
 _atom_site_occupancy
  P  P0  1  0.00000000  0.00000000  0.00000000  1
  P  P1  1  0.33300000  0.66700000  0.25000000  1
  P  P2  1  0.66700000  0.33300000  0.50000000  1
  P  P3  1  0.00000000  0.00000000  0.75000000  1
  Se  Se4  1  0.36982226  0.56992379  0.99844995  1
  Se  Se5  1  0.32403252  0.37873727  0.32011219  1
  Li  Li6  1  0.44404562  0.20972783  0.43426197  1
  Li  Li7  1  0.03951464  0.91277972  0.95500297  1
  Y  Y8  1  0.90872863  0.10722245  0.30283571  1
  Y  Y9  1  0.03620207  0.45488806  0.97142971  1
