# generated using pymatgen
data_Li2Y2Mo(PSe)2
_symmetry_space_group_name_H-M   'P 1'
_cell_length_a   5.70734825
_cell_length_b   5.68779887
_cell_length_c   7.39071742
_cell_angle_alpha   93.58280948
_cell_angle_beta   97.80261418
_cell_angle_gamma   104.39072170
_symmetry_Int_Tables_number   1
_chemical_formula_structural   Li2Y2Mo(PSe)2
_chemical_formula_sum   'Li2 Y2 Mo1 P2 Se2'
_cell_volume   229.07937049
_cell_formula_units_Z   1
loop_
 _symmetry_equiv_pos_site_id
 _symmetry_equiv_pos_as_xyz
  1  'x, y, z'
loop_
 _atom_site_type_symbol
 _atom_site_label
 _atom_site_symmetry_multiplicity
 _atom_site_fract_x
 _atom_site_fract_y
 _atom_site_fract_z
 _atom_site_occupancy
  Se  Se0  1  0.00000000  0.00000000  0.00000000  1
  Se  Se1  1  0.50000000  0.50000000  0.50000000  1
  P  P2  1  0.25000000  0.25000000  0.25000000  1
  P  P3  1  0.75000000  0.25000000  0.00000000  1
  Mo  Mo4  1  0.25000000  0.75000000  0.50000000  1
  Li  Li5  1  0.16858773  0.73877325  0.64882562  1
  Li  Li6  1  0.31685516  0.13013417  0.18366824  1
  Y  Y7  1  0.86908023  0.10868791  0.24064408  1
  Y  Y8  1  0.01021984  0.90145833  0.13317588  1
