# generated using pymatgen
data_LiF
_symmetry_space_group_name_H-M   'P 1'
_cell_length_a   9.10360154
_cell_length_b   5.15701644
_cell_length_c   5.26454264
_cell_angle_alpha   90.00000000
_cell_angle_beta   90.00000000
_cell_angle_gamma   90.00000000
_symmetry_Int_Tables_number   1
_chemical_formula_structural   LiF
_chemical_formula_sum   'Li8 F8'
_cell_volume   247.15670918
_cell_formula_units_Z   8
loop_
 _symmetry_equiv_pos_site_id
 _symmetry_equiv_pos_as_xyz
  1  'x, y, z'
loop_
 _atom_site_type_symbol
 _atom_site_label
 _atom_site_symmetry_multiplicity
 _atom_site_fract_x
 _atom_site_fract_y
 _atom_site_fract_z
 _atom_site_occupancy
  F  F0  1  0.92993786  0.37802158  0.00000000  1
  F  F1  1  -0.92993786  -0.37802158  0.00000000  1
  F  F2  1  -0.42993786  0.87802158  0.50000000  1
  F  F3  1  1.42993786  0.12197842  0.50000000  1
  F  F4  1  0.00000000  0.50000000  0.00000000  1
  F  F5  1  0.50000000  0.00000000  0.50000000  1
  F  F6  1  0.00000000  0.50000000  0.50000000  1
  F  F7  1  0.50000000  0.00000000  0.00000000  1
  Li  Li8  1  0.67343135  0.09558700  0.00000000  1
  Li  Li9  1  0.32656865  0.90441300  -0.00000000  1
  Li  Li10  1  0.82656865  0.59558700  0.50000000  1
  Li  Li11  1  0.17343135  0.40441300  0.50000000  1
  Li  Li12  1  0.71152625  0.43061843  0.00000000  1
  Li  Li13  1  0.28847375  0.56938157  0.00000000  1
  Li  Li14  1  0.78847375  0.93061843  0.50000000  1
  Li  Li15  1  0.21152625  0.06938157  0.50000000  1
