# generated using pymatgen
data_LiF
_symmetry_space_group_name_H-M   'P 1'
_cell_length_a   7.71511657
_cell_length_b   5.26721369
_cell_length_c   11.24082106
_cell_angle_alpha   90.00000000
_cell_angle_beta   90.00000000
_cell_angle_gamma   90.00000000
_symmetry_Int_Tables_number   1
_chemical_formula_structural   LiF
_chemical_formula_sum   'Li24 F24'
_cell_volume   456.79512974
_cell_formula_units_Z   24
loop_
 _symmetry_equiv_pos_site_id
 _symmetry_equiv_pos_as_xyz
  1  'x, y, z'
loop_
 _atom_site_type_symbol
 _atom_site_label
 _atom_site_symmetry_multiplicity
 _atom_site_fract_x
 _atom_site_fract_y
 _atom_site_fract_z
 _atom_site_occupancy
  F  F0  1  0.73408722  0.35877537  0.56898886  1
  F  F1  1  -0.73408722  -0.35877537  0.56898886  1
  F  F2  1  -0.23408722  0.85877537  -0.56898886  1
  F  F3  1  1.23408722  0.14122463  -0.56898886  1
  F  F4  1  -0.73408722  -0.35877537  -0.56898886  1
  F  F5  1  0.73408722  0.35877537  -0.56898886  1
  F  F6  1  1.23408722  0.14122463  0.56898886  1
  F  F7  1  -0.23408722  0.85877537  0.56898886  1
  F  F8  1  0.00000000  0.50000000  0.00000000  1
  F  F9  1  0.50000000  0.00000000  0.00000000  1
  F  F10  1  0.17443048  0.31522126  0.72573072  1
  F  F11  1  0.82556952  0.68477874  0.72573072  1
  F  F12  1  0.32556952  0.81522126  0.27426928  1
  F  F13  1  0.67443048  0.18477874  0.27426928  1
  F  F14  1  0.82556952  0.68477874  0.27426928  1
  F  F15  1  0.17443048  0.31522126  0.27426928  1
  F  F16  1  0.67443048  0.18477874  0.72573072  1
  F  F17  1  0.32556952  0.81522126  0.72573072  1
  F  F18  1  0.00000000  0.50000000  0.35570698  1
  F  F19  1  0.50000000  0.00000000  0.64429302  1
  F  F20  1  0.00000000  0.50000000  0.64429302  1
  F  F21  1  0.50000000  0.00000000  0.35570698  1
  F  F22  1  0.00000000  0.50000000  0.50000000  1
  F  F23  1  0.50000000  0.00000000  0.50000000  1
  Li  Li24  1  0.66014422  0.87419684  0.00000000  1
  Li  Li25  1  0.33985578  0.12580316  0.00000000  1
  Li  Li26  1  0.83985578  0.37419684  -0.00000000  1
  Li  Li27  1  0.16014422  0.62580316  0.00000000  1
  Li  Li28  1  0.00000000  0.00000000  0.00000000  1
  Li  Li29  1  0.50000000  0.50000000  0.00000000  1
  Li  Li30  1  0.00831125  0.65673881  0.74158561  1
  Li  Li31  1  0.99168875  0.34326119  0.74158561  1
  Li  Li32  1  0.49168875  0.15673881  0.25841439  1
  Li  Li33  1  0.50831125  0.84326119  0.25841439  1
  Li  Li34  1  0.99168875  0.34326119  0.25841439  1
  Li  Li35  1  0.00831125  0.65673881  0.25841439  1
  Li  Li36  1  0.50831125  0.84326119  0.74158561  1
  Li  Li37  1  0.49168875  0.15673881  0.74158561  1
  Li  Li38  1  0.36987717  0.49341067  0.83141375  1
  Li  Li39  1  0.63012283  0.50658933  0.83141375  1
  Li  Li40  1  0.13012283  0.99341067  0.16858625  1
  Li  Li41  1  0.86987717  0.00658933  0.16858625  1
  Li  Li42  1  0.63012283  0.50658933  0.16858625  1
  Li  Li43  1  0.36987717  0.49341067  0.16858625  1
  Li  Li44  1  0.86987717  0.00658933  0.83141375  1
  Li  Li45  1  0.13012283  0.99341067  0.83141375  1
  Li  Li46  1  0.00000000  0.00000000  0.50000000  1
  Li  Li47  1  0.50000000  0.50000000  0.50000000  1
