# generated using pymatgen
data_Li3Y(P2Se)2
_symmetry_space_group_name_H-M   'P 1'
_cell_length_a   5.81644320
_cell_length_b   5.89124055
_cell_length_c   7.73767313
_cell_angle_alpha   94.53847151
_cell_angle_beta   99.88384742
_cell_angle_gamma   108.22923628
_symmetry_Int_Tables_number   1
_chemical_formula_structural   Li3Y(P2Se)2
_chemical_formula_sum   'Li3 Y1 P4 Se2'
_cell_volume   245.58293275
_cell_formula_units_Z   1
loop_
 _symmetry_equiv_pos_site_id
 _symmetry_equiv_pos_as_xyz
  1  'x, y, z'
loop_
 _atom_site_type_symbol
 _atom_site_label
 _atom_site_symmetry_multiplicity
 _atom_site_fract_x
 _atom_site_fract_y
 _atom_site_fract_z
 _atom_site_occupancy
  P  P0  1  0.00000000  0.00000000  0.00000000  1
  P  P1  1  0.33300000  0.66700000  0.25000000  1
  P  P2  1  0.66700000  0.33300000  0.50000000  1
  P  P3  1  0.00000000  0.00000000  0.75000000  1
  Se  Se4  1  0.49290745  0.17337103  0.64168266  1
  Se  Se5  1  0.08117654  0.21022015  0.20825791  1
  Li  Li6  1  0.97612596  0.47776504  0.49648198  1
  Li  Li7  1  0.59251493  0.62962192  0.09151243  1
  Li  Li8  1  0.42538655  0.18319994  0.74260862  1
  Y  Y9  1  0.76064882  0.27883674  0.72643410  1
