# generated using pymatgen
data_LiF
_symmetry_space_group_name_H-M   'P 1'
_cell_length_a   10.59092019
_cell_length_b   10.59092019
_cell_length_c   20.32979133
_cell_angle_alpha   90.00000000
_cell_angle_beta   90.00000000
_cell_angle_gamma   90.00000000
_symmetry_Int_Tables_number   1
_chemical_formula_structural   LiF
_chemical_formula_sum   'Li64 F64'
_cell_volume   2280.34370731
_cell_formula_units_Z   64
loop_
 _symmetry_equiv_pos_site_id
 _symmetry_equiv_pos_as_xyz
  1  'x, y, z'
loop_
 _atom_site_type_symbol
 _atom_site_label
 _atom_site_symmetry_multiplicity
 _atom_site_fract_x
 _atom_site_fract_y
 _atom_site_fract_z
 _atom_site_occupancy
  F  F0  1  0.18157749  0.07087579  0.36518056  1
  F  F1  1  0.31842251  0.92912421  0.86518056  1
  F  F2  1  0.17912421  0.93157749  0.61518056  1
  F  F3  1  0.32087579  0.06842251  0.11518056  1
  F  F4  1  0.31842251  0.07087579  0.63481944  1
  F  F5  1  0.18157749  0.92912421  0.13481944  1
  F  F6  1  0.32087579  0.93157749  0.38481944  1
  F  F7  1  0.17912421  0.06842251  0.88481944  1
  F  F8  1  0.81842251  0.92912421  0.63481944  1
  F  F9  1  0.68157749  0.07087579  0.13481944  1
  F  F10  1  0.82087579  0.06842251  0.38481944  1
  F  F11  1  0.67912421  0.93157749  0.88481944  1
  F  F12  1  0.68157749  0.92912421  0.36518056  1
  F  F13  1  0.81842251  0.07087579  0.86518056  1
  F  F14  1  0.67912421  0.06842251  0.61518056  1
  F  F15  1  0.82087579  0.93157749  0.11518056  1
  F  F16  1  0.68157749  0.57087579  0.86518056  1
  F  F17  1  0.81842251  0.42912421  0.36518056  1
  F  F18  1  0.67912421  0.43157749  0.11518056  1
  F  F19  1  0.82087579  0.56842251  0.61518056  1
  F  F20  1  0.81842251  0.57087579  0.13481944  1
  F  F21  1  0.68157749  0.42912421  0.63481944  1
  F  F22  1  0.82087579  0.43157749  0.88481944  1
  F  F23  1  0.67912421  0.56842251  0.38481944  1
  F  F24  1  0.31842251  0.42912421  0.13481944  1
  F  F25  1  0.18157749  0.57087579  0.63481944  1
  F  F26  1  0.32087579  0.56842251  0.88481944  1
  F  F27  1  0.17912421  0.43157749  0.38481944  1
  F  F28  1  0.18157749  0.42912421  0.86518056  1
  F  F29  1  0.31842251  0.57087579  0.36518056  1
  F  F30  1  0.17912421  0.56842251  0.11518056  1
  F  F31  1  0.32087579  0.43157749  0.61518056  1
  F  F32  1  0.73751510  0.54616244  0.22318624  1
  F  F33  1  0.76248490  0.45383756  0.72318624  1
  F  F34  1  0.70383756  0.48751510  0.47318624  1
  F  F35  1  0.79616244  0.51248490  0.97318624  1
  F  F36  1  0.76248490  0.54616244  0.77681376  1
  F  F37  1  0.73751510  0.45383756  0.27681376  1
  F  F38  1  0.79616244  0.48751510  0.52681376  1
  F  F39  1  0.70383756  0.51248490  0.02681376  1
  F  F40  1  0.26248490  0.45383756  0.77681376  1
  F  F41  1  0.23751510  0.54616244  0.27681376  1
  F  F42  1  0.29616244  0.51248490  0.52681376  1
  F  F43  1  0.20383756  0.48751510  0.02681376  1
  F  F44  1  0.23751510  0.45383756  0.22318624  1
  F  F45  1  0.26248490  0.54616244  0.72318624  1
  F  F46  1  0.20383756  0.51248490  0.47318624  1
  F  F47  1  0.29616244  0.48751510  0.97318624  1
  F  F48  1  0.23751510  0.04616244  0.72318624  1
  F  F49  1  0.26248490  0.95383756  0.22318624  1
  F  F50  1  0.20383756  0.98751510  0.97318624  1
  F  F51  1  0.29616244  0.01248490  0.47318624  1
  F  F52  1  0.26248490  0.04616244  0.27681376  1
  F  F53  1  0.23751510  0.95383756  0.77681376  1
  F  F54  1  0.29616244  0.98751510  0.02681376  1
  F  F55  1  0.20383756  0.01248490  0.52681376  1
  F  F56  1  0.76248490  0.95383756  0.27681376  1
  F  F57  1  0.73751510  0.04616244  0.77681376  1
  F  F58  1  0.79616244  0.01248490  0.02681376  1
  F  F59  1  0.70383756  0.98751510  0.52681376  1
  F  F60  1  0.73751510  0.95383756  0.72318624  1
  F  F61  1  0.76248490  0.04616244  0.22318624  1
  F  F62  1  0.70383756  0.01248490  0.97318624  1
  F  F63  1  0.79616244  0.98751510  0.47318624  1
  Li  Li64  1  0.17542731  -0.00000000  0.25000000  1
  Li  Li65  1  0.32457269  0.00000000  0.75000000  1
  Li  Li66  1  0.25000000  0.92542731  0.50000000  1
  Li  Li67  1  0.25000000  0.07457269  0.00000000  1
  Li  Li68  1  0.82457269  0.00000000  0.75000000  1
  Li  Li69  1  0.67542731  0.00000000  0.25000000  1
  Li  Li70  1  0.75000000  0.07457269  0.50000000  1
  Li  Li71  1  0.75000000  0.92542731  -0.00000000  1
  Li  Li72  1  0.67542731  0.50000000  0.75000000  1
  Li  Li73  1  0.82457269  0.50000000  0.25000000  1
  Li  Li74  1  0.75000000  0.42542731  0.00000000  1
  Li  Li75  1  0.75000000  0.57457269  0.50000000  1
  Li  Li76  1  0.32457269  0.50000000  0.25000000  1
  Li  Li77  1  0.17542731  0.50000000  0.75000000  1
  Li  Li78  1  0.25000000  0.57457269  -0.00000000  1
  Li  Li79  1  0.25000000  0.42542731  0.50000000  1
  Li  Li80  1  0.00000000  0.25000000  0.12500000  1
  Li  Li81  1  0.00000000  0.75000000  0.37500000  1
  Li  Li82  1  0.00000000  0.75000000  0.87500000  1
  Li  Li83  1  0.00000000  0.25000000  0.62500000  1
  Li  Li84  1  0.50000000  0.75000000  0.62500000  1
  Li  Li85  1  0.50000000  0.25000000  0.87500000  1
  Li  Li86  1  0.50000000  0.25000000  0.37500000  1
  Li  Li87  1  0.50000000  0.75000000  0.12500000  1
  Li  Li88  1  0.53349278  0.82852549  0.48786973  1
  Li  Li89  1  -0.03349278  -0.82852549  0.98786973  1
  Li  Li90  1  -0.57852549  1.28349278  0.73786973  1
  Li  Li91  1  1.07852549  -0.28349278  1.23786973  1
  Li  Li92  1  -0.03349278  0.82852549  -0.48786973  1
  Li  Li93  1  0.53349278  -0.82852549  0.01213027  1
  Li  Li94  1  1.07852549  1.28349278  0.26213027  1
  Li  Li95  1  -0.57852549  -0.28349278  -0.23786973  1
  Li  Li96  1  -0.53349278  -0.82852549  -0.48786973  1
  Li  Li97  1  1.03349278  0.82852549  0.01213027  1
  Li  Li98  1  1.57852549  -0.28349278  0.26213027  1
  Li  Li99  1  -0.07852549  1.28349278  -0.23786973  1
  Li  Li100  1  1.03349278  -0.82852549  0.48786973  1
  Li  Li101  1  -0.53349278  0.82852549  0.98786973  1
  Li  Li102  1  -0.07852549  -0.28349278  0.73786973  1
  Li  Li103  1  1.57852549  1.28349278  1.23786973  1
  Li  Li104  1  1.03349278  1.32852549  0.98786973  1
  Li  Li105  1  0.46650722  -0.32852549  1.48786973  1
  Li  Li106  1  -0.07852549  1.78349278  1.23786973  1
  Li  Li107  1  1.57852549  0.21650722  1.73786973  1
  Li  Li108  1  0.46650722  1.32852549  0.01213027  1
  Li  Li109  1  1.03349278  -0.32852549  0.51213027  1
  Li  Li110  1  1.57852549  1.78349278  0.76213027  1
  Li  Li111  1  -0.07852549  0.21650722  0.26213027  1
  Li  Li112  1  -0.03349278  -0.32852549  0.01213027  1
  Li  Li113  1  1.53349278  1.32852549  0.51213027  1
  Li  Li114  1  2.07852549  0.21650722  0.76213027  1
  Li  Li115  1  0.42147451  1.78349278  0.26213027  1
  Li  Li116  1  1.53349278  -0.32852549  0.98786973  1
  Li  Li117  1  -0.03349278  1.32852549  1.48786973  1
  Li  Li118  1  0.42147451  0.21650722  1.23786973  1
  Li  Li119  1  2.07852549  1.78349278  1.73786973  1
  Li  Li120  1  0.00000000  0.25000000  0.37500000  1
  Li  Li121  1  0.00000000  0.75000000  0.62500000  1
  Li  Li122  1  0.50000000  0.25000000  0.62500000  1
  Li  Li123  1  0.50000000  0.75000000  0.37500000  1
  Li  Li124  1  0.50000000  0.75000000  0.87500000  1
  Li  Li125  1  0.50000000  0.25000000  0.12500000  1
  Li  Li126  1  0.00000000  0.75000000  0.12500000  1
  Li  Li127  1  0.00000000  0.25000000  0.87500000  1
