# generated using pymatgen
data_LiF
_symmetry_space_group_name_H-M   'P 1'
_cell_length_a   6.69869212
_cell_length_b   6.69869212
_cell_length_c   15.44591828
_cell_angle_alpha   90.00000000
_cell_angle_beta   90.00000000
_cell_angle_gamma   120.00000000
_symmetry_Int_Tables_number   1
_chemical_formula_structural   LiF
_chemical_formula_sum   'Li24 F24'
_cell_volume   600.23926250
_cell_formula_units_Z   24
loop_
 _symmetry_equiv_pos_site_id
 _symmetry_equiv_pos_as_xyz
  1  'x, y, z'
loop_
 _atom_site_type_symbol
 _atom_site_label
 _atom_site_symmetry_multiplicity
 _atom_site_fract_x
 _atom_site_fract_y
 _atom_site_fract_z
 _atom_site_occupancy
  F  F0  1  0.00000000  0.00000000  0.50000000  1
  F  F1  1  0.52305564  0.79980392  0.05695417  1
  F  F2  1  0.20019608  0.72325172  0.05695417  1
  F  F3  1  0.27674828  0.47694436  0.05695417  1
  F  F4  1  0.20019608  0.47694436  0.94304583  1
  F  F5  1  0.27674828  0.79980392  0.94304583  1
  F  F6  1  0.52305564  0.72325172  0.94304583  1
  F  F7  1  0.95800662  0.04470982  0.35124986  1
  F  F8  1  0.95529018  0.91329679  0.35124986  1
  F  F9  1  0.08670321  0.04199338  0.35124986  1
  F  F10  1  0.95529018  0.04199338  0.64875014  1
  F  F11  1  0.08670321  0.04470982  0.64875014  1
  F  F12  1  0.95800662  0.91329679  0.64875014  1
  F  F13  1  0.33333333  0.66666667  0.75650627  1
  F  F14  1  0.33333333  0.66666667  0.24349373  1
  F  F15  1  0.02584194  0.45786839  0.97238095  1
  F  F16  1  0.54213161  0.56797355  0.97238095  1
  F  F17  1  0.43202645  0.97415806  0.97238095  1
  F  F18  1  0.54213161  0.97415806  0.02761905  1
  F  F19  1  0.43202645  0.45786839  0.02761905  1
  F  F20  1  0.02584194  0.56797355  0.02761905  1
  F  F21  1  0.89882732  0.10117268  0.50000000  1
  F  F22  1  0.89882732  0.79765464  0.50000000  1
  F  F23  1  0.20234536  0.10117268  0.50000000  1
  Li  Li24  1  0.33333333  0.66666667  0.65095985  1
  Li  Li25  1  0.33333333  0.66666667  0.34904015  1
  Li  Li26  1  0.06528955  0.19062586  0.37671895  1
  Li  Li27  1  -0.19062586  -0.12533631  0.37671895  1
  Li  Li28  1  0.12533631  -0.06528955  0.37671895  1
  Li  Li29  1  -0.19062586  -0.06528955  -0.37671895  1
  Li  Li30  1  0.12533631  0.19062586  -0.37671895  1
  Li  Li31  1  0.06528955  -0.12533631  -0.37671895  1
  Li  Li32  1  0.43869432  0.91284304  0.70275152  1
  Li  Li33  1  0.08715696  0.52585128  0.70275152  1
  Li  Li34  1  0.47414872  0.56130568  0.70275152  1
  Li  Li35  1  0.08715696  0.56130568  0.29724848  1
  Li  Li36  1  0.47414872  0.91284304  0.29724848  1
  Li  Li37  1  0.43869432  0.52585128  0.29724848  1
  Li  Li38  1  0.66666667  0.33333333  0.75283006  1
  Li  Li39  1  0.66666667  0.33333333  0.24716994  1
  Li  Li40  1  0.27586955  0.24428230  0.45808246  1
  Li  Li41  1  0.75571770  0.03158725  0.45808246  1
  Li  Li42  1  0.96841275  0.72413045  0.45808246  1
  Li  Li43  1  0.75571770  0.72413045  0.54191754  1
  Li  Li44  1  0.96841275  0.24428230  0.54191754  1
  Li  Li45  1  0.27586955  0.03158725  0.54191754  1
  Li  Li46  1  0.33333333  0.66666667  0.50000000  1
  Li  Li47  1  0.66666667  0.33333333  0.00000000  1
