# generated using pymatgen
data_LiF
_symmetry_space_group_name_H-M   'P 1'
_cell_length_a   5.55217779
_cell_length_b   5.55217779
_cell_length_c   19.24407132
_cell_angle_alpha   90.00000000
_cell_angle_beta   90.00000000
_cell_angle_gamma   120.00000000
_symmetry_Int_Tables_number   1
_chemical_formula_structural   LiF
_chemical_formula_sum   'Li21 F21'
_cell_volume   513.75293749
_cell_formula_units_Z   21
loop_
 _symmetry_equiv_pos_site_id
 _symmetry_equiv_pos_as_xyz
  1  'x, y, z'
loop_
 _atom_site_type_symbol
 _atom_site_label
 _atom_site_symmetry_multiplicity
 _atom_site_fract_x
 _atom_site_fract_y
 _atom_site_fract_z
 _atom_site_occupancy
  F  F0  1  0.76190924  0.23809076  -0.00000000  1
  F  F1  1  0.76190924  0.52381849  -0.00000000  1
  F  F2  1  0.47618151  0.23809076  -0.00000000  1
  F  F3  1  0.66666667  0.33333333  -0.00000000  1
  F  F4  1  0.12317441  0.92661769  0.65233812  1
  F  F5  1  0.07338231  0.19655672  0.65233812  1
  F  F6  1  0.80344328  0.87682559  0.65233812  1
  F  F7  1  0.07338231  0.87682559  0.34766188  1
  F  F8  1  0.80344328  0.92661769  0.34766188  1
  F  F9  1  0.12317441  0.19655672  0.34766188  1
  F  F10  1  0.84784569  0.63729833  0.12514359  1
  F  F11  1  0.36270167  0.21054736  0.12514359  1
  F  F12  1  0.78945264  0.15215431  0.12514359  1
  F  F13  1  0.36270167  0.15215431  0.87485641  1
  F  F14  1  0.78945264  0.63729833  0.87485641  1
  F  F15  1  0.84784569  0.21054736  0.87485641  1
  F  F16  1  0.25142192  0.74857808  -0.00000000  1
  F  F17  1  0.25142192  0.50284385  0.00000000  1
  F  F18  1  0.49715615  0.74857808  -0.00000000  1
  F  F19  1  0.66666667  0.33333333  0.32245677  1
  F  F20  1  0.66666667  0.33333333  0.67754323  1
  Li  Li21  1  0.00000000  0.00000000  0.00000000  1
  Li  Li22  1  0.47405943  0.37591723  0.36692202  1
  Li  Li23  1  -0.37591723  0.09814220  0.36692202  1
  Li  Li24  1  -0.09814220  -0.47405943  0.36692202  1
  Li  Li25  1  -0.37591723  -0.47405943  -0.36692202  1
  Li  Li26  1  -0.09814220  0.37591723  -0.36692202  1
  Li  Li27  1  0.47405943  0.09814220  -0.36692202  1
  Li  Li28  1  0.33333333  0.66666667  0.20129219  1
  Li  Li29  1  0.33333333  0.66666667  0.79870781  1
  Li  Li30  1  0.17169537  0.51045098  0.13998477  1
  Li  Li31  1  0.48954902  0.66124440  0.13998477  1
  Li  Li32  1  0.33875560  0.82830463  0.13998477  1
  Li  Li33  1  0.48954902  0.82830463  0.86001523  1
  Li  Li34  1  0.33875560  0.51045098  0.86001523  1
  Li  Li35  1  0.17169537  0.66124440  0.86001523  1
  Li  Li36  1  0.95340720  0.20909599  0.39161050  1
  Li  Li37  1  0.79090401  0.74431121  0.39161050  1
  Li  Li38  1  0.25568879  0.04659280  0.39161050  1
  Li  Li39  1  0.79090401  0.04659280  0.60838950  1
  Li  Li40  1  0.25568879  0.20909599  0.60838950  1
  Li  Li41  1  0.95340720  0.74431121  0.60838950  1
