# generated using pymatgen
data_LiCaF3
_symmetry_space_group_name_H-M   'P 1'
_cell_length_a   23.71434087
_cell_length_b   23.71434087
_cell_length_c   4.30892364
_cell_angle_alpha   90.00000000
_cell_angle_beta   90.00000000
_cell_angle_gamma   120.00000000
_symmetry_Int_Tables_number   1
_chemical_formula_structural   LiCaF3
_chemical_formula_sum   'Li18 Ca18 F54'
_cell_volume   2098.56074913
_cell_formula_units_Z   18
loop_
 _symmetry_equiv_pos_site_id
 _symmetry_equiv_pos_as_xyz
  1  'x, y, z'
loop_
 _atom_site_type_symbol
 _atom_site_label
 _atom_site_symmetry_multiplicity
 _atom_site_fract_x
 _atom_site_fract_y
 _atom_site_fract_z
 _atom_site_occupancy
  Ca  Ca0  1  0.80832024  0.19167976  -0.00000000  1
  Ca  Ca1  1  0.80832024  0.61664048  -0.00000000  1
  Ca  Ca2  1  0.38335952  0.19167976  -0.00000000  1
  Ca  Ca3  1  0.40270998  0.59729002  0.00000000  1
  Ca  Ca4  1  0.40270998  0.80541996  -0.00000000  1
  Ca  Ca5  1  0.19458004  0.59729002  0.00000000  1
  Ca  Ca6  1  0.68912067  0.78728924  0.20581164  1
  Ca  Ca7  1  0.21271076  0.90183143  0.20581164  1
  Ca  Ca8  1  0.09816857  0.31087933  0.20581164  1
  Ca  Ca9  1  0.21271076  0.31087933  0.79418836  1
  Ca  Ca10  1  0.09816857  0.78728924  0.79418836  1
  Ca  Ca11  1  0.68912067  0.90183143  0.79418836  1
  Ca  Ca12  1  0.22530232  0.30242346  0.33855035  1
  Ca  Ca13  1  0.69757654  0.92287886  0.33855035  1
  Ca  Ca14  1  0.07712114  0.77469768  0.33855035  1
  Ca  Ca15  1  0.69757654  0.77469768  0.66144965  1
  Ca  Ca16  1  0.07712114  0.30242346  0.66144965  1
  Ca  Ca17  1  0.22530232  0.92287886  0.66144965  1
  F  F18  1  0.19980476  0.80019524  0.50000000  1
  F  F19  1  0.19980476  0.39960953  0.50000000  1
  F  F20  1  0.60039047  0.80019524  0.50000000  1
  F  F21  1  0.40333097  0.53488302  0.21993248  1
  F  F22  1  -0.53488302  -0.13155205  0.21993248  1
  F  F23  1  0.13155205  -0.40333097  0.21993248  1
  F  F24  1  -0.53488302  -0.40333097  -0.21993248  1
  F  F25  1  0.13155205  0.53488302  -0.21993248  1
  F  F26  1  0.40333097  -0.13155205  -0.21993248  1
  F  F27  1  0.33333333  0.66666667  0.50000000  1
  F  F28  1  0.92344614  0.94408990  0.76909720  1
  F  F29  1  0.05591010  0.97935623  0.76909720  1
  F  F30  1  0.02064377  0.07655386  0.76909720  1
  F  F31  1  0.05591010  0.07655386  0.23090280  1
  F  F32  1  0.02064377  0.94408990  0.23090280  1
  F  F33  1  0.92344614  0.97935623  0.23090280  1
  F  F34  1  0.66247544  0.16036635  0.62012772  1
  F  F35  1  0.83963365  0.50210909  0.62012772  1
  F  F36  1  0.49789091  0.33752456  0.62012772  1
  F  F37  1  0.83963365  0.33752456  0.37987228  1
  F  F38  1  0.49789091  0.16036635  0.37987228  1
  F  F39  1  0.66247544  0.50210909  0.37987228  1
  F  F40  1  0.66666667  0.33333333  0.09841095  1
  F  F41  1  0.66666667  0.33333333  0.90158905  1
  F  F42  1  0.59408436  0.29129179  0.41754313  1
  F  F43  1  0.70870821  0.30279256  0.41754313  1
  F  F44  1  0.69720744  0.40591564  0.41754313  1
  F  F45  1  0.70870821  0.40591564  0.58245687  1
  F  F46  1  0.69720744  0.29129179  0.58245687  1
  F  F47  1  0.59408436  0.30279256  0.58245687  1
  F  F48  1  0.93137922  0.87721699  0.58054535  1
  F  F49  1  0.12278301  0.05416223  0.58054535  1
  F  F50  1  0.94583777  0.06862078  0.58054535  1
  F  F51  1  0.12278301  0.06862078  0.41945465  1
  F  F52  1  0.94583777  0.87721699  0.41945465  1
  F  F53  1  0.93137922  0.05416223  0.41945465  1
  F  F54  1  0.19108001  0.80891999  0.00000000  1
  F  F55  1  0.19108001  0.38216003  0.00000000  1
  F  F56  1  0.61783997  0.80891999  0.00000000  1
  F  F57  1  0.85519914  0.55799513  0.11103587  1
  F  F58  1  0.44200487  0.29720401  0.11103587  1
  F  F59  1  0.70279599  0.14480086  0.11103587  1
  F  F60  1  0.44200487  0.14480086  0.88896413  1
  F  F61  1  0.70279599  0.55799513  0.88896413  1
  F  F62  1  0.85519914  0.29720401  0.88896413  1
  F  F63  1  0.41799502  0.38559256  0.10816706  1
  F  F64  1  0.61440744  0.03240246  0.10816706  1
  F  F65  1  0.96759754  0.58200498  0.10816706  1
  F  F66  1  0.61440744  0.58200498  0.89183294  1
  F  F67  1  0.96759754  0.38559256  0.89183294  1
  F  F68  1  0.41799502  0.03240246  0.89183294  1
  F  F69  1  0.44752276  0.55247724  0.50000000  1
  F  F70  1  0.44752276  0.89504552  0.50000000  1
  F  F71  1  0.10495448  0.55247724  0.50000000  1
  Li  Li72  1  0.61856688  0.65040806  0.28301642  1
  Li  Li73  1  0.34959194  0.96815882  0.28301642  1
  Li  Li74  1  0.03184118  0.38143312  0.28301642  1
  Li  Li75  1  0.34959194  0.38143312  0.71698358  1
  Li  Li76  1  0.03184118  0.65040806  0.71698358  1
  Li  Li77  1  0.61856688  0.96815882  0.71698358  1
  Li  Li78  1  0.93465362  0.36333059  0.49549867  1
  Li  Li79  1  0.63666941  0.57132303  0.49549867  1
  Li  Li80  1  0.42867697  0.06534638  0.49549867  1
  Li  Li81  1  0.63666941  0.06534638  0.50450133  1
  Li  Li82  1  0.42867697  0.36333059  0.50450133  1
  Li  Li83  1  0.93465362  0.57132303  0.50450133  1
  Li  Li84  1  0.96099619  0.18495284  0.28725063  1
  Li  Li85  1  0.81504716  0.77604335  0.28725063  1
  Li  Li86  1  0.22395665  0.03900381  0.28725063  1
  Li  Li87  1  0.81504716  0.03900381  0.71274937  1
  Li  Li88  1  0.22395665  0.18495284  0.71274937  1
  Li  Li89  1  0.96099619  0.77604335  0.71274937  1
