# generated using pymatgen
data_LiF
_symmetry_space_group_name_H-M   'P 1'
_cell_length_a   11.95571037
_cell_length_b   11.95571037
_cell_length_c   11.31679301
_cell_angle_alpha   90.00000000
_cell_angle_beta   90.00000000
_cell_angle_gamma   120.00000000
_symmetry_Int_Tables_number   1
_chemical_formula_structural   LiF
_chemical_formula_sum   'Li57 F57'
_cell_volume   1400.89238709
_cell_formula_units_Z   57
loop_
 _symmetry_equiv_pos_site_id
 _symmetry_equiv_pos_as_xyz
  1  'x, y, z'
loop_
 _atom_site_type_symbol
 _atom_site_label
 _atom_site_symmetry_multiplicity
 _atom_site_fract_x
 _atom_site_fract_y
 _atom_site_fract_z
 _atom_site_occupancy
  F  F0  1  0.78907163  0.80076887  0.57376973  1
  F  F1  1  0.19923113  0.98830276  0.57376973  1
  F  F2  1  0.01169724  0.21092837  0.57376973  1
  F  F3  1  0.19923113  0.21092837  0.42623027  1
  F  F4  1  0.01169724  0.80076887  0.42623027  1
  F  F5  1  0.78907163  0.98830276  0.42623027  1
  F  F6  1  0.00372244  0.67329169  0.30065637  1
  F  F7  1  0.32670831  0.33043075  0.30065637  1
  F  F8  1  0.66956925  0.99627756  0.30065637  1
  F  F9  1  0.32670831  0.99627756  0.69934363  1
  F  F10  1  0.66956925  0.67329169  0.69934363  1
  F  F11  1  0.00372244  0.33043075  0.69934363  1
  F  F12  1  0.79246341  0.12813737  0.93710817  1
  F  F13  1  0.87186263  0.66432604  0.93710817  1
  F  F14  1  0.33567396  0.20753659  0.93710817  1
  F  F15  1  0.87186263  0.20753659  0.06289183  1
  F  F16  1  0.33567396  0.12813737  0.06289183  1
  F  F17  1  0.79246341  0.66432604  0.06289183  1
  F  F18  1  0.24306385  0.71486693  0.72416017  1
  F  F19  1  0.28513307  0.52819691  0.72416017  1
  F  F20  1  0.47180309  0.75693615  0.72416017  1
  F  F21  1  0.28513307  0.75693615  0.27583983  1
  F  F22  1  0.47180309  0.71486693  0.27583983  1
  F  F23  1  0.24306385  0.52819691  0.27583983  1
  F  F24  1  0.40080749  0.62933992  0.85995657  1
  F  F25  1  0.37066008  0.77146757  0.85995657  1
  F  F26  1  0.22853243  0.59919251  0.85995657  1
  F  F27  1  0.37066008  0.59919251  0.14004343  1
  F  F28  1  0.22853243  0.62933992  0.14004343  1
  F  F29  1  0.40080749  0.77146757  0.14004343  1
  F  F30  1  0.17883017  0.98860377  0.11280203  1
  F  F31  1  0.01139623  0.19022641  0.11280203  1
  F  F32  1  0.80977359  0.82116983  0.11280203  1
  F  F33  1  0.01139623  0.82116983  0.88719797  1
  F  F34  1  0.80977359  0.98860377  0.88719797  1
  F  F35  1  0.17883017  0.19022641  0.88719797  1
  F  F36  1  0.36565089  0.01216308  0.06585522  1
  F  F37  1  0.98783692  0.35348781  0.06585522  1
  F  F38  1  0.64651219  0.63434911  0.06585522  1
  F  F39  1  0.98783692  0.63434911  0.93414478  1
  F  F40  1  0.64651219  0.01216308  0.93414478  1
  F  F41  1  0.36565089  0.35348781  0.93414478  1
  F  F42  1  0.10972129  0.86694660  0.28728402  1
  F  F43  1  0.13305340  0.24277468  0.28728402  1
  F  F44  1  0.75722532  0.89027871  0.28728402  1
  F  F45  1  0.13305340  0.89027871  0.71271598  1
  F  F46  1  0.75722532  0.86694660  0.71271598  1
  F  F47  1  0.10972129  0.24277468  0.71271598  1
  F  F48  1  0.33333333  0.66666667  0.37076540  1
  F  F49  1  0.33333333  0.66666667  0.62923460  1
  F  F50  1  0.56699992  0.89246562  0.46086065  1
  F  F51  1  0.10753438  0.67453430  0.46086065  1
  F  F52  1  0.32546570  0.43300008  0.46086065  1
  F  F53  1  0.10753438  0.43300008  0.53913935  1
  F  F54  1  0.32546570  0.89246562  0.53913935  1
  F  F55  1  0.56699992  0.67453430  0.53913935  1
  F  F56  1  0.00000000  0.00000000  0.00000000  1
  Li  Li57  1  0.33333333  0.66666667  0.00000000  1
  Li  Li58  1  0.85849264  0.55688508  0.66161362  1
  Li  Li59  1  -0.55688508  0.30160757  0.66161362  1
  Li  Li60  1  -0.30160757  -0.85849264  0.66161362  1
  Li  Li61  1  -0.55688508  -0.85849264  -0.66161362  1
  Li  Li62  1  -0.30160757  0.55688508  -0.66161362  1
  Li  Li63  1  0.85849264  0.30160757  -0.66161362  1
  Li  Li64  1  0.33333333  0.66666667  0.50000000  1
  Li  Li65  1  0.51662522  0.66847675  0.95204779  1
  Li  Li66  1  0.33152325  0.84814847  0.95204779  1
  Li  Li67  1  0.15185153  0.48337478  0.95204779  1
  Li  Li68  1  0.33152325  0.48337478  0.04795221  1
  Li  Li69  1  0.15185153  0.66847675  0.04795221  1
  Li  Li70  1  0.51662522  0.84814847  0.04795221  1
  Li  Li71  1  0.56029502  0.38260944  0.81648595  1
  Li  Li72  1  0.61739056  0.17768558  0.81648595  1
  Li  Li73  1  0.82231442  0.43970498  0.81648595  1
  Li  Li74  1  0.61739056  0.43970498  0.18351405  1
  Li  Li75  1  0.82231442  0.38260944  0.18351405  1
  Li  Li76  1  0.56029502  0.17768558  0.18351405  1
  Li  Li77  1  0.66666667  0.33333333  0.60967518  1
  Li  Li78  1  0.66666667  0.33333333  0.39032482  1
  Li  Li79  1  0.91292508  0.08707492  0.50000000  1
  Li  Li80  1  0.91292508  0.82585016  0.50000000  1
  Li  Li81  1  0.17414984  0.08707492  0.50000000  1
  Li  Li82  1  0.06122025  0.93877975  0.00000000  1
  Li  Li83  1  0.06122025  0.12244050  -0.00000000  1
  Li  Li84  1  0.87755950  0.93877975  0.00000000  1
  Li  Li85  1  0.91038862  0.58739301  0.16308882  1
  Li  Li86  1  0.41260699  0.32299561  0.16308882  1
  Li  Li87  1  0.67700439  0.08961138  0.16308882  1
  Li  Li88  1  0.41260699  0.08961138  0.83691118  1
  Li  Li89  1  0.67700439  0.58739301  0.83691118  1
  Li  Li90  1  0.91038862  0.32299561  0.83691118  1
  Li  Li91  1  0.92479037  0.07520963  0.00000000  1
  Li  Li92  1  0.92479037  0.84958073  0.00000000  1
  Li  Li93  1  0.15041927  0.07520963  0.00000000  1
  Li  Li94  1  0.66666667  0.33333333  0.00000000  1
  Li  Li95  1  0.61515132  0.60066609  0.23492435  1
  Li  Li96  1  0.39933391  0.01448523  0.23492435  1
  Li  Li97  1  0.98551477  0.38484868  0.23492435  1
  Li  Li98  1  0.39933391  0.38484868  0.76507565  1
  Li  Li99  1  0.98551477  0.60066609  0.76507565  1
  Li  Li100  1  0.61515132  0.01448523  0.76507565  1
  Li  Li101  1  0.99343362  0.74121410  0.03359261  1
  Li  Li102  1  0.25878590  0.25221952  0.03359261  1
  Li  Li103  1  0.74778048  0.00656638  0.03359261  1
  Li  Li104  1  0.25878590  0.00656638  0.96640739  1
  Li  Li105  1  0.74778048  0.74121410  0.96640739  1
  Li  Li106  1  0.99343362  0.25221952  0.96640739  1
  Li  Li107  1  0.67006336  0.51767241  0.61348050  1
  Li  Li108  1  0.48232759  0.15239095  0.61348050  1
  Li  Li109  1  0.84760905  0.32993664  0.61348050  1
  Li  Li110  1  0.48232759  0.32993664  0.38651950  1
  Li  Li111  1  0.84760905  0.51767241  0.38651950  1
  Li  Li112  1  0.67006336  0.15239095  0.38651950  1
  Li  Li113  1  0.00000000  0.00000000  0.50000000  1
