# generated using pymatgen
data_Li4TeF2
_symmetry_space_group_name_H-M   'P 1'
_cell_length_a   24.48209486
_cell_length_b   24.48209486
_cell_length_c   6.51413697
_cell_angle_alpha   90.00000000
_cell_angle_beta   90.00000000
_cell_angle_gamma   120.00000000
_symmetry_Int_Tables_number   1
_chemical_formula_structural   Li4TeF2
_chemical_formula_sum   'Li96 Te24 F48'
_cell_volume   3381.30752110
_cell_formula_units_Z   24
loop_
 _symmetry_equiv_pos_site_id
 _symmetry_equiv_pos_as_xyz
  1  'x, y, z'
loop_
 _atom_site_type_symbol
 _atom_site_label
 _atom_site_symmetry_multiplicity
 _atom_site_fract_x
 _atom_site_fract_y
 _atom_site_fract_z
 _atom_site_occupancy
  F  F0  1  0.00000000  0.00000000  0.00000000  1
  F  F1  1  0.33333333  0.66666667  0.50000000  1
  F  F2  1  0.66666667  0.33333333  0.50000000  1
  F  F3  1  0.68648780  0.00000000  0.21515383  1
  F  F4  1  0.00000000  0.68648780  0.21515383  1
  F  F5  1  0.31351220  0.31351220  0.21515383  1
  F  F6  1  0.68648780  0.00000000  0.78484617  1
  F  F7  1  0.00000000  0.68648780  0.78484617  1
  F  F8  1  0.31351220  0.31351220  0.78484617  1
  F  F9  1  0.93726308  0.87005332  0.05571050  1
  F  F10  1  -0.87005332  0.06720975  0.05571050  1
  F  F11  1  -0.06720975  -0.93726308  0.05571050  1
  F  F12  1  0.93726308  0.87005332  -0.05571050  1
  F  F13  1  -0.87005332  0.06720975  -0.05571050  1
  F  F14  1  -0.06720975  -0.93726308  -0.05571050  1
  F  F15  1  0.87005332  0.93726308  -0.05571050  1
  F  F16  1  0.06720975  -0.87005332  -0.05571050  1
  F  F17  1  -0.93726308  -0.06720975  -0.05571050  1
  F  F18  1  0.87005332  0.93726308  0.05571050  1
  F  F19  1  0.06720975  -0.87005332  0.05571050  1
  F  F20  1  -0.93726308  -0.06720975  0.05571050  1
  F  F21  1  0.06792775  0.32076409  0.50000000  1
  F  F22  1  0.67923591  0.74716367  0.50000000  1
  F  F23  1  0.25283633  0.93207225  0.50000000  1
  F  F24  1  0.32076409  0.06792775  0.50000000  1
  F  F25  1  0.74716367  0.67923591  0.50000000  1
  F  F26  1  0.93207225  0.25283633  0.50000000  1
  F  F27  1  0.35848618  0.53138688  0.32079118  1
  F  F28  1  0.46861312  0.82709929  0.32079118  1
  F  F29  1  0.17290071  0.64151382  0.32079118  1
  F  F30  1  0.35848618  0.53138688  0.67920882  1
  F  F31  1  0.46861312  0.82709929  0.67920882  1
  F  F32  1  0.17290071  0.64151382  0.67920882  1
  F  F33  1  0.53138688  0.35848618  0.67920882  1
  F  F34  1  0.82709929  0.46861312  0.67920882  1
  F  F35  1  0.64151382  0.17290071  0.67920882  1
  F  F36  1  0.53138688  0.35848618  0.32079118  1
  F  F37  1  0.82709929  0.46861312  0.32079118  1
  F  F38  1  0.64151382  0.17290071  0.32079118  1
  F  F39  1  0.02552880  0.18001576  0.50000000  1
  F  F40  1  0.81998424  0.84551304  0.50000000  1
  F  F41  1  0.15448696  0.97447120  0.50000000  1
  F  F42  1  0.18001576  0.02552880  0.50000000  1
  F  F43  1  0.84551304  0.81998424  0.50000000  1
  F  F44  1  0.97447120  0.15448696  0.50000000  1
  F  F45  1  0.58892073  0.00000000  0.00000000  1
  F  F46  1  0.00000000  0.58892073  0.00000000  1
  F  F47  1  0.41107927  0.41107927  0.00000000  1
  Li  Li48  1  0.59910903  -0.00000000  0.50000000  1
  Li  Li49  1  0.00000000  0.59910903  0.50000000  1
  Li  Li50  1  0.40089097  0.40089097  0.50000000  1
  Li  Li51  1  0.54158829  0.24069839  0.20356398  1
  Li  Li52  1  0.75930161  0.30088990  0.20356398  1
  Li  Li53  1  0.69911010  0.45841171  0.20356398  1
  Li  Li54  1  0.54158829  0.24069839  0.79643602  1
  Li  Li55  1  0.75930161  0.30088990  0.79643602  1
  Li  Li56  1  0.69911010  0.45841171  0.79643602  1
  Li  Li57  1  0.24069839  0.54158829  0.79643602  1
  Li  Li58  1  0.30088990  0.75930161  0.79643602  1
  Li  Li59  1  0.45841171  0.69911010  0.79643602  1
  Li  Li60  1  0.24069839  0.54158829  0.20356398  1
  Li  Li61  1  0.30088990  0.75930161  0.20356398  1
  Li  Li62  1  0.45841171  0.69911010  0.20356398  1
  Li  Li63  1  0.31887082  0.17022417  0.50000000  1
  Li  Li64  1  0.82977583  0.14864664  0.50000000  1
  Li  Li65  1  0.85135336  0.68112918  0.50000000  1
  Li  Li66  1  0.17022417  0.31887082  0.50000000  1
  Li  Li67  1  0.14864664  0.82977583  0.50000000  1
  Li  Li68  1  0.68112918  0.85135336  0.50000000  1
  Li  Li69  1  0.08792441  0.41190740  0.50000000  1
  Li  Li70  1  0.58809260  0.67601702  0.50000000  1
  Li  Li71  1  0.32398298  0.91207559  0.50000000  1
  Li  Li72  1  0.41190740  0.08792441  0.50000000  1
  Li  Li73  1  0.67601702  0.58809260  0.50000000  1
  Li  Li74  1  0.91207559  0.32398298  0.50000000  1
  Li  Li75  1  0.82284213  0.00000000  0.00000000  1
  Li  Li76  1  0.00000000  0.82284213  -0.00000000  1
  Li  Li77  1  0.17715787  0.17715787  -0.00000000  1
  Li  Li78  1  0.52142968  0.15108706  0.50000000  1
  Li  Li79  1  0.84891294  0.37034262  0.50000000  1
  Li  Li80  1  0.62965738  0.47857032  0.50000000  1
  Li  Li81  1  0.15108706  0.52142968  0.50000000  1
  Li  Li82  1  0.37034262  0.84891294  0.50000000  1
  Li  Li83  1  0.47857032  0.62965738  0.50000000  1
  Li  Li84  1  0.94496274  0.67622288  0.13155283  1
  Li  Li85  1  0.32377712  0.26873986  0.13155283  1
  Li  Li86  1  0.73126014  0.05503726  0.13155283  1
  Li  Li87  1  0.94496274  0.67622288  0.86844717  1
  Li  Li88  1  0.32377712  0.26873986  0.86844717  1
  Li  Li89  1  0.73126014  0.05503726  0.86844717  1
  Li  Li90  1  0.67622288  0.94496274  0.86844717  1
  Li  Li91  1  0.26873986  0.32377712  0.86844717  1
  Li  Li92  1  0.05503726  0.73126014  0.86844717  1
  Li  Li93  1  0.67622288  0.94496274  0.13155283  1
  Li  Li94  1  0.26873986  0.32377712  0.13155283  1
  Li  Li95  1  0.05503726  0.73126014  0.13155283  1
  Li  Li96  1  0.28796616  0.57450635  0.00000000  1
  Li  Li97  1  0.42549365  0.71345981  -0.00000000  1
  Li  Li98  1  0.28654019  0.71203384  0.00000000  1
  Li  Li99  1  0.57450635  0.28796616  0.00000000  1
  Li  Li100  1  0.71345981  0.42549365  0.00000000  1
  Li  Li101  1  0.71203384  0.28654019  0.00000000  1
  Li  Li102  1  0.61443524  0.15967927  0.86569785  1
  Li  Li103  1  0.84032073  0.45475598  0.86569785  1
  Li  Li104  1  0.54524402  0.38556476  0.86569785  1
  Li  Li105  1  0.61443524  0.15967927  0.13430215  1
  Li  Li106  1  0.84032073  0.45475598  0.13430215  1
  Li  Li107  1  0.54524402  0.38556476  0.13430215  1
  Li  Li108  1  0.15967927  0.61443524  0.13430215  1
  Li  Li109  1  0.45475598  0.84032073  0.13430215  1
  Li  Li110  1  0.38556476  0.54524402  0.13430215  1
  Li  Li111  1  0.15967927  0.61443524  0.86569785  1
  Li  Li112  1  0.45475598  0.84032073  0.86569785  1
  Li  Li113  1  0.38556476  0.54524402  0.86569785  1
  Li  Li114  1  0.41090656  0.00000000  0.82996745  1
  Li  Li115  1  0.00000000  0.41090656  0.82996745  1
  Li  Li116  1  0.58909344  0.58909344  0.82996745  1
  Li  Li117  1  0.41090656  0.00000000  0.17003255  1
  Li  Li118  1  0.00000000  0.41090656  0.17003255  1
  Li  Li119  1  0.58909344  0.58909344  0.17003255  1
  Li  Li120  1  0.39851086  0.60645946  0.79963969  1
  Li  Li121  1  0.39354054  0.79205139  0.79963969  1
  Li  Li122  1  0.20794861  0.60148914  0.79963969  1
  Li  Li123  1  0.39851086  0.60645946  0.20036031  1
  Li  Li124  1  0.39354054  0.79205139  0.20036031  1
  Li  Li125  1  0.20794861  0.60148914  0.20036031  1
  Li  Li126  1  0.60645946  0.39851086  0.20036031  1
  Li  Li127  1  0.79205139  0.39354054  0.20036031  1
  Li  Li128  1  0.60148914  0.20794861  0.20036031  1
  Li  Li129  1  0.60645946  0.39851086  0.79963969  1
  Li  Li130  1  0.79205139  0.39354054  0.79963969  1
  Li  Li131  1  0.60148914  0.20794861  0.79963969  1
  Li  Li132  1  0.82496768  0.17969971  0.13392559  1
  Li  Li133  1  0.82030029  0.64526797  0.13392559  1
  Li  Li134  1  0.35473203  0.17503232  0.13392559  1
  Li  Li135  1  0.82496768  0.17969971  0.86607441  1
  Li  Li136  1  0.82030029  0.64526797  0.86607441  1
  Li  Li137  1  0.35473203  0.17503232  0.86607441  1
  Li  Li138  1  0.17969971  0.82496768  0.86607441  1
  Li  Li139  1  0.64526797  0.82030029  0.86607441  1
  Li  Li140  1  0.17503232  0.35473203  0.86607441  1
  Li  Li141  1  0.17969971  0.82496768  0.13392559  1
  Li  Li142  1  0.64526797  0.82030029  0.13392559  1
  Li  Li143  1  0.17503232  0.35473203  0.13392559  1
  Te  Te144  1  0.27250002  0.10469360  0.11338751  1
  Te  Te145  1  0.89530640  0.16780642  0.11338751  1
  Te  Te146  1  0.83219358  0.72749998  0.11338751  1
  Te  Te147  1  0.27250002  0.10469360  0.88661249  1
  Te  Te148  1  0.89530640  0.16780642  0.88661249  1
  Te  Te149  1  0.83219358  0.72749998  0.88661249  1
  Te  Te150  1  0.10469360  0.27250002  0.88661249  1
  Te  Te151  1  0.16780642  0.89530640  0.88661249  1
  Te  Te152  1  0.72749998  0.83219358  0.88661249  1
  Te  Te153  1  0.10469360  0.27250002  0.11338751  1
  Te  Te154  1  0.16780642  0.89530640  0.11338751  1
  Te  Te155  1  0.72749998  0.83219358  0.11338751  1
  Te  Te156  1  0.06841408  0.75395664  0.50000000  1
  Te  Te157  1  0.24604336  0.31445745  0.50000000  1
  Te  Te158  1  0.68554255  0.93158592  0.50000000  1
  Te  Te159  1  0.75395664  0.06841408  0.50000000  1
  Te  Te160  1  0.31445745  0.24604336  0.50000000  1
  Te  Te161  1  0.93158592  0.68554255  0.50000000  1
  Te  Te162  1  0.00000000  0.00000000  0.33874716  1
  Te  Te163  1  0.00000000  0.00000000  0.66125284  1
  Te  Te164  1  0.33333333  0.66666667  0.82880652  1
  Te  Te165  1  0.33333333  0.66666667  0.17119348  1
  Te  Te166  1  0.66666667  0.33333333  0.17119348  1
  Te  Te167  1  0.66666667  0.33333333  0.82880652  1
