# generated using pymatgen
data_Li3Y2(P2Se)2
_symmetry_space_group_name_H-M   'P 1'
_cell_length_a   5.44928281
_cell_length_b   5.78614871
_cell_length_c   7.37095217
_cell_angle_alpha   93.90372744
_cell_angle_beta   98.50150679
_cell_angle_gamma   105.67972161
_symmetry_Int_Tables_number   1
_chemical_formula_structural   Li3Y2(P2Se)2
_chemical_formula_sum   'Li3 Y2 P4 Se2'
_cell_volume   219.87262557
_cell_formula_units_Z   1
loop_
 _symmetry_equiv_pos_site_id
 _symmetry_equiv_pos_as_xyz
  1  'x, y, z'
loop_
 _atom_site_type_symbol
 _atom_site_label
 _atom_site_symmetry_multiplicity
 _atom_site_fract_x
 _atom_site_fract_y
 _atom_site_fract_z
 _atom_site_occupancy
  Se  Se0  1  0.12500000  0.00000000  0.25000000  1
  Se  Se1  1  0.00000000  0.00000000  0.00000000  1
  Y  Y2  1  0.37500000  0.00000000  0.25000000  1
  Y  Y3  1  0.25000000  0.25000000  0.25000000  1
  P  P4  1  0.00000000  0.25000000  0.12500000  1
  P  P5  1  0.45735867  0.55515133  0.89769981  1
  P  P6  1  0.99437843  0.77081979  0.75100673  1
  P  P7  1  0.75149732  0.37115258  0.34368218  1
  Li  Li8  1  0.80538812  0.76603665  0.90789049  1
  Li  Li9  1  0.21172760  0.65740413  0.62516193  1
  Li  Li10  1  0.45297274  0.49883340  0.68714968  1
