# generated using pymatgen
data_LiF
_symmetry_space_group_name_H-M   'P 1'
_cell_length_a   9.55466993
_cell_length_b   9.55466993
_cell_length_c   4.17487997
_cell_angle_alpha   90.00000000
_cell_angle_beta   90.00000000
_cell_angle_gamma   120.00000000
_symmetry_Int_Tables_number   1
_chemical_formula_structural   LiF
_chemical_formula_sum   'Li14 F14'
_cell_volume   330.06996233
_cell_formula_units_Z   14
loop_
 _symmetry_equiv_pos_site_id
 _symmetry_equiv_pos_as_xyz
  1  'x, y, z'
loop_
 _atom_site_type_symbol
 _atom_site_label
 _atom_site_symmetry_multiplicity
 _atom_site_fract_x
 _atom_site_fract_y
 _atom_site_fract_z
 _atom_site_occupancy
  F  F0  1  0.51366682  0.45284888  0.62274536  1
  F  F1  1  0.54715112  0.06081794  0.62274536  1
  F  F2  1  0.93918206  0.48633318  0.62274536  1
  F  F3  1  0.54715112  0.48633318  0.37725464  1
  F  F4  1  0.93918206  0.45284888  0.37725464  1
  F  F5  1  0.51366682  0.06081794  0.37725464  1
  F  F6  1  0.78675113  0.46456409  0.46495192  1
  F  F7  1  0.53543591  0.32218704  0.46495192  1
  F  F8  1  0.67781296  0.21324887  0.46495192  1
  F  F9  1  0.53543591  0.21324887  0.53504808  1
  F  F10  1  0.67781296  0.46456409  0.53504808  1
  F  F11  1  0.78675113  0.32218704  0.53504808  1
  F  F12  1  0.66666667  0.33333333  0.00000000  1
  F  F13  1  0.33333333  0.66666667  0.00000000  1
  Li  Li14  1  0.80086679  0.40994646  0.25551060  1
  Li  Li15  1  -0.40994646  0.39092033  0.25551060  1
  Li  Li16  1  -0.39092033  -0.80086679  0.25551060  1
  Li  Li17  1  -0.40994646  -0.80086679  -0.25551060  1
  Li  Li18  1  -0.39092033  0.40994646  -0.25551060  1
  Li  Li19  1  0.80086679  0.39092033  -0.25551060  1
  Li  Li20  1  0.13314016  0.98039921  0.84919924  1
  Li  Li21  1  0.01960079  0.15274095  0.84919924  1
  Li  Li22  1  0.84725905  0.86685984  0.84919924  1
  Li  Li23  1  0.01960079  0.86685984  0.15080076  1
  Li  Li24  1  0.84725905  0.98039921  0.15080076  1
  Li  Li25  1  0.13314016  0.15274095  0.15080076  1
  Li  Li26  1  0.66666667  0.33333333  0.50000000  1
  Li  Li27  1  0.33333333  0.66666667  0.50000000  1
