# generated using pymatgen
data_LiF
_symmetry_space_group_name_H-M   'P 1'
_cell_length_a   10.12211246
_cell_length_b   11.77809353
_cell_length_c   6.82991580
_cell_angle_alpha   90.00000000
_cell_angle_beta   90.00000000
_cell_angle_gamma   90.00000000
_symmetry_Int_Tables_number   1
_chemical_formula_structural   LiF
_chemical_formula_sum   'Li24 F24'
_cell_volume   814.25701034
_cell_formula_units_Z   24
loop_
 _symmetry_equiv_pos_site_id
 _symmetry_equiv_pos_as_xyz
  1  'x, y, z'
loop_
 _atom_site_type_symbol
 _atom_site_label
 _atom_site_symmetry_multiplicity
 _atom_site_fract_x
 _atom_site_fract_y
 _atom_site_fract_z
 _atom_site_occupancy
  F  F0  1  0.72672652  0.64089426  0.06665380  1
  F  F1  1  0.77327348  0.35910574  0.56665380  1
  F  F2  1  0.27327348  0.14089426  0.93334620  1
  F  F3  1  0.22672652  0.85910574  0.43334620  1
  F  F4  1  0.27327348  0.35910574  0.93334620  1
  F  F5  1  0.22672652  0.64089426  0.43334620  1
  F  F6  1  0.72672652  0.85910574  0.06665380  1
  F  F7  1  0.77327348  0.14089426  0.56665380  1
  F  F8  1  0.55414899  0.27567584  0.54538517  1
  F  F9  1  0.94585101  0.72432416  0.04538517  1
  F  F10  1  0.44585101  0.77567584  0.45461483  1
  F  F11  1  0.05414899  0.22432416  0.95461483  1
  F  F12  1  0.44585101  0.72432416  0.45461483  1
  F  F13  1  0.05414899  0.27567584  0.95461483  1
  F  F14  1  0.55414899  0.22432416  0.54538517  1
  F  F15  1  0.94585101  0.77567584  0.04538517  1
  F  F16  1  0.45400267  0.94857115  0.14152681  1
  F  F17  1  0.04599733  0.05142885  0.64152681  1
  F  F18  1  0.54599733  0.44857115  0.85847319  1
  F  F19  1  0.95400267  0.55142885  0.35847319  1
  F  F20  1  0.54599733  0.05142885  0.85847319  1
  F  F21  1  0.95400267  0.94857115  0.35847319  1
  F  F22  1  0.45400267  0.55142885  0.14152681  1
  F  F23  1  0.04599733  0.44857115  0.64152681  1
  Li  Li24  1  0.63794592  0.86891309  0.55036486  1
  Li  Li25  1  -0.13794592  -0.86891309  1.05036486  1
  Li  Li26  1  -0.63794592  1.36891309  -0.55036486  1
  Li  Li27  1  1.13794592  -0.36891309  -0.05036486  1
  Li  Li28  1  -0.63794592  -0.86891309  -0.55036486  1
  Li  Li29  1  1.13794592  0.86891309  -0.05036486  1
  Li  Li30  1  0.63794592  -0.36891309  0.55036486  1
  Li  Li31  1  -0.13794592  1.36891309  1.05036486  1
  Li  Li32  1  0.00000000  0.00000000  0.00000000  1
  Li  Li33  1  0.50000000  0.00000000  0.50000000  1
  Li  Li34  1  0.00000000  0.50000000  0.00000000  1
  Li  Li35  1  0.50000000  0.50000000  0.50000000  1
  Li  Li36  1  0.14902076  0.32687528  0.22458090  1
  Li  Li37  1  0.35097924  0.67312472  0.72458090  1
  Li  Li38  1  0.85097924  0.82687528  0.77541910  1
  Li  Li39  1  0.64902076  0.17312472  0.27541910  1
  Li  Li40  1  0.85097924  0.67312472  0.77541910  1
  Li  Li41  1  0.64902076  0.32687528  0.27541910  1
  Li  Li42  1  0.14902076  0.17312472  0.22458090  1
  Li  Li43  1  0.35097924  0.82687528  0.72458090  1
  Li  Li44  1  0.55399523  0.25000000  0.95376518  1
  Li  Li45  1  0.94600477  0.75000000  0.45376518  1
  Li  Li46  1  0.44600477  0.75000000  0.04623482  1
  Li  Li47  1  0.05399523  0.25000000  0.54623482  1
