# generated using pymatgen
data_LiF
_symmetry_space_group_name_H-M   'P 1'
_cell_length_a   6.67897220
_cell_length_b   6.67897220
_cell_length_c   15.79629103
_cell_angle_alpha   90.00000000
_cell_angle_beta   90.00000000
_cell_angle_gamma   120.00000000
_symmetry_Int_Tables_number   1
_chemical_formula_structural   LiF
_chemical_formula_sum   'Li22 F22'
_cell_volume   610.24612449
_cell_formula_units_Z   22
loop_
 _symmetry_equiv_pos_site_id
 _symmetry_equiv_pos_as_xyz
  1  'x, y, z'
loop_
 _atom_site_type_symbol
 _atom_site_label
 _atom_site_symmetry_multiplicity
 _atom_site_fract_x
 _atom_site_fract_y
 _atom_site_fract_z
 _atom_site_occupancy
  F  F0  1  0.33333333  0.66666667  -0.00000000  1
  F  F1  1  0.28392652  0.87209543  0.89137625  1
  F  F2  1  0.12790457  0.41183109  0.89137625  1
  F  F3  1  0.58816891  0.71607348  0.89137625  1
  F  F4  1  0.12790457  0.71607348  0.10862375  1
  F  F5  1  0.58816891  0.87209543  0.10862375  1
  F  F6  1  0.28392652  0.41183109  0.10862375  1
  F  F7  1  0.67667400  0.64491676  0.47466538  1
  F  F8  1  0.35508324  0.03175724  0.47466538  1
  F  F9  1  0.96824276  0.32332600  0.47466538  1
  F  F10  1  0.35508324  0.32332600  0.52533462  1
  F  F11  1  0.96824276  0.64491676  0.52533462  1
  F  F12  1  0.67667400  0.03175724  0.52533462  1
  F  F13  1  0.66666667  0.33333333  0.20089433  1
  F  F14  1  0.66666667  0.33333333  0.79910567  1
  F  F15  1  0.45548018  0.42694059  0.66881153  1
  F  F16  1  0.57305941  0.02853959  0.66881153  1
  F  F17  1  0.97146041  0.54451982  0.66881153  1
  F  F18  1  0.57305941  0.54451982  0.33118847  1
  F  F19  1  0.97146041  0.42694059  0.33118847  1
  F  F20  1  0.45548018  0.02853959  0.33118847  1
  F  F21  1  0.66666667  0.33333333  -0.00000000  1
  Li  Li22  1  0.00000000  0.00000000  0.50000000  1
  Li  Li23  1  0.00000000  0.00000000  0.75867390  1
  Li  Li24  1  0.00000000  0.00000000  0.24132610  1
  Li  Li25  1  0.98883888  0.87223070  0.09545416  1
  Li  Li26  1  -0.87223070  0.11660818  0.09545416  1
  Li  Li27  1  -0.11660818  -0.98883888  0.09545416  1
  Li  Li28  1  -0.87223070  -0.98883888  -0.09545416  1
  Li  Li29  1  -0.11660818  0.87223070  -0.09545416  1
  Li  Li30  1  0.98883888  0.11660818  -0.09545416  1
  Li  Li31  1  0.43454868  0.52295157  0.07654767  1
  Li  Li32  1  0.47704843  0.91159711  0.07654767  1
  Li  Li33  1  0.08840289  0.56545132  0.07654767  1
  Li  Li34  1  0.47704843  0.56545132  0.92345233  1
  Li  Li35  1  0.08840289  0.52295157  0.92345233  1
  Li  Li36  1  0.43454868  0.91159711  0.92345233  1
  Li  Li37  1  0.00000000  0.00000000  0.00000000  1
  Li  Li38  1  0.38636750  0.30791884  0.41928188  1
  Li  Li39  1  0.69208116  0.07844867  0.41928188  1
  Li  Li40  1  0.92155133  0.61363250  0.41928188  1
  Li  Li41  1  0.69208116  0.61363250  0.58071812  1
  Li  Li42  1  0.92155133  0.30791884  0.58071812  1
  Li  Li43  1  0.38636750  0.07844867  0.58071812  1
