# generated using pymatgen
data_LiF
_symmetry_space_group_name_H-M   'P 1'
_cell_length_a   11.60887902
_cell_length_b   11.60887902
_cell_length_c   3.96730277
_cell_angle_alpha   90.00000000
_cell_angle_beta   90.00000000
_cell_angle_gamma   120.00000000
_symmetry_Int_Tables_number   1
_chemical_formula_structural   LiF
_chemical_formula_sum   'Li27 F27'
_cell_volume   463.02724648
_cell_formula_units_Z   27
loop_
 _symmetry_equiv_pos_site_id
 _symmetry_equiv_pos_as_xyz
  1  'x, y, z'
loop_
 _atom_site_type_symbol
 _atom_site_label
 _atom_site_symmetry_multiplicity
 _atom_site_fract_x
 _atom_site_fract_y
 _atom_site_fract_z
 _atom_site_occupancy
  F  F0  1  0.07596193  0.47126399  0.34469857  1
  F  F1  1  0.52873601  0.60469793  0.34469857  1
  F  F2  1  0.39530207  0.92403807  0.34469857  1
  F  F3  1  0.52873601  0.92403807  0.65530143  1
  F  F4  1  0.39530207  0.47126399  0.65530143  1
  F  F5  1  0.07596193  0.60469793  0.65530143  1
  F  F6  1  0.48117553  0.38073439  0.40471111  1
  F  F7  1  0.61926561  0.10044114  0.40471111  1
  F  F8  1  0.89955886  0.51882447  0.40471111  1
  F  F9  1  0.61926561  0.51882447  0.59528889  1
  F  F10  1  0.89955886  0.38073439  0.59528889  1
  F  F11  1  0.48117553  0.10044114  0.59528889  1
  F  F12  1  0.66666667  0.33333333  -0.00000000  1
  F  F13  1  0.93819036  0.06180964  0.50000000  1
  F  F14  1  0.93819036  0.87638072  0.50000000  1
  F  F15  1  0.12361928  0.06180964  0.50000000  1
  F  F16  1  0.37033555  0.86655080  0.20139274  1
  F  F17  1  0.13344920  0.50378476  0.20139274  1
  F  F18  1  0.49621524  0.62966445  0.20139274  1
  F  F19  1  0.13344920  0.62966445  0.79860726  1
  F  F20  1  0.49621524  0.86655080  0.79860726  1
  F  F21  1  0.37033555  0.50378476  0.79860726  1
  F  F22  1  0.18698257  0.81301743  0.00000000  1
  F  F23  1  0.18698257  0.37396513  -0.00000000  1
  F  F24  1  0.62603487  0.81301743  -0.00000000  1
  F  F25  1  0.33333333  0.66666667  0.25380996  1
  F  F26  1  0.33333333  0.66666667  0.74619004  1
  Li  Li27  1  0.65075770  0.10326911  0.97944109  1
  Li  Li28  1  -0.10326911  0.54748859  0.97944109  1
  Li  Li29  1  -0.54748859  -0.65075770  0.97944109  1
  Li  Li30  1  -0.10326911  -0.65075770  -0.97944109  1
  Li  Li31  1  -0.54748859  0.10326911  -0.97944109  1
  Li  Li32  1  0.65075770  0.54748859  -0.97944109  1
  Li  Li33  1  0.17442697  0.96939958  0.40386766  1
  Li  Li34  1  0.03060042  0.20502739  0.40386766  1
  Li  Li35  1  0.79497261  0.82557303  0.40386766  1
  Li  Li36  1  0.03060042  0.82557303  0.59613234  1
  Li  Li37  1  0.79497261  0.96939958  0.59613234  1
  Li  Li38  1  0.17442697  0.20502739  0.59613234  1
  Li  Li39  1  0.13912715  0.86087285  -0.00000000  1
  Li  Li40  1  0.13912715  0.27825430  -0.00000000  1
  Li  Li41  1  0.72174570  0.86087285  -0.00000000  1
  Li  Li42  1  0.71663436  0.03310007  0.69368949  1
  Li  Li43  1  0.96689993  0.68353429  0.69368949  1
  Li  Li44  1  0.31646571  0.28336564  0.69368949  1
  Li  Li45  1  0.96689993  0.28336564  0.30631051  1
  Li  Li46  1  0.31646571  0.03310007  0.30631051  1
  Li  Li47  1  0.71663436  0.68353429  0.30631051  1
  Li  Li48  1  0.71661181  0.28338819  -0.00000000  1
  Li  Li49  1  0.71661181  0.43322362  -0.00000000  1
  Li  Li50  1  0.56677638  0.28338819  -0.00000000  1
  Li  Li51  1  0.33333333  0.66666667  0.00000000  1
  Li  Li52  1  0.00000000  0.00000000  0.50000000  1
  Li  Li53  1  0.00000000  0.00000000  0.00000000  1
