# generated using pymatgen
data_Li2Si4Te3F12
_symmetry_space_group_name_H-M   'P 1'
_cell_length_a   16.24309189
_cell_length_b   16.24309189
_cell_length_c   4.92339885
_cell_angle_alpha   90.00000000
_cell_angle_beta   90.00000000
_cell_angle_gamma   90.00000000
_symmetry_Int_Tables_number   1
_chemical_formula_structural   Li2Si4Te3F12
_chemical_formula_sum   'Li8 Si16 Te12 F48'
_cell_volume   1298.97987527
_cell_formula_units_Z   4
loop_
 _symmetry_equiv_pos_site_id
 _symmetry_equiv_pos_as_xyz
  1  'x, y, z'
loop_
 _atom_site_type_symbol
 _atom_site_label
 _atom_site_symmetry_multiplicity
 _atom_site_fract_x
 _atom_site_fract_y
 _atom_site_fract_z
 _atom_site_occupancy
  F  F0  1  0.77176143  0.01493944  0.69586185  1
  F  F1  1  -0.27176143  -0.01493944  1.19586185  1
  F  F2  1  0.23506056  1.52176143  0.94586185  1
  F  F3  1  0.26493944  -0.52176143  1.44586185  1
  F  F4  1  -0.27176143  0.01493944  -0.19586185  1
  F  F5  1  0.77176143  -0.01493944  -0.69586185  1
  F  F6  1  0.26493944  1.52176143  -0.44586185  1
  F  F7  1  0.23506056  -0.52176143  0.05413815  1
  F  F8  1  -0.77176143  -0.01493944  -0.69586185  1
  F  F9  1  1.27176143  0.01493944  -0.19586185  1
  F  F10  1  0.76493944  -0.52176143  0.05413815  1
  F  F11  1  0.73506056  1.52176143  -0.44586185  1
  F  F12  1  1.27176143  -0.01493944  1.19586185  1
  F  F13  1  -0.77176143  0.01493944  0.69586185  1
  F  F14  1  0.73506056  -0.52176143  1.44586185  1
  F  F15  1  0.76493944  1.52176143  0.94586185  1
  F  F16  1  1.27176143  0.51493944  1.19586185  1
  F  F17  1  0.22823857  0.48506056  1.69586185  1
  F  F18  1  0.73506056  2.02176143  1.44586185  1
  F  F19  1  0.76493944  -0.02176143  1.94586185  1
  F  F20  1  0.22823857  0.51493944  0.30413815  1
  F  F21  1  1.27176143  0.48506056  -0.19586185  1
  F  F22  1  0.76493944  2.02176143  0.05413815  1
  F  F23  1  0.73506056  -0.02176143  0.55413815  1
  F  F24  1  -0.27176143  0.48506056  -0.19586185  1
  F  F25  1  1.77176143  0.51493944  0.30413815  1
  F  F26  1  1.26493944  -0.02176143  0.55413815  1
  F  F27  1  1.23506056  2.02176143  0.05413815  1
  F  F28  1  1.77176143  0.48506056  1.69586185  1
  F  F29  1  -0.27176143  0.51493944  1.19586185  1
  F  F30  1  1.23506056  -0.02176143  1.94586185  1
  F  F31  1  1.26493944  2.02176143  1.44586185  1
  F  F32  1  0.00000000  0.84449806  0.79054758  1
  F  F33  1  0.50000000  0.15550194  0.29054758  1
  F  F34  1  0.40550194  0.75000000  0.04054758  1
  F  F35  1  0.09449806  0.25000000  0.54054758  1
  F  F36  1  0.50000000  0.84449806  0.70945242  1
  F  F37  1  0.00000000  0.15550194  0.20945242  1
  F  F38  1  0.09449806  0.75000000  0.45945242  1
  F  F39  1  0.40550194  0.25000000  0.95945242  1
  F  F40  1  0.50000000  0.34449806  0.29054758  1
  F  F41  1  0.00000000  0.65550194  0.79054758  1
  F  F42  1  0.90550194  0.25000000  0.54054758  1
  F  F43  1  0.59449806  0.75000000  0.04054758  1
  F  F44  1  0.00000000  0.34449806  0.20945242  1
  F  F45  1  0.50000000  0.65550194  0.70945242  1
  F  F46  1  0.59449806  0.25000000  0.95945242  1
  F  F47  1  0.90550194  0.75000000  0.45945242  1
  Li  Li48  1  0.00000000  0.25000000  0.71835478  1
  Li  Li49  1  0.00000000  0.75000000  0.96835478  1
  Li  Li50  1  0.50000000  0.25000000  0.78164522  1
  Li  Li51  1  0.50000000  0.75000000  0.53164522  1
  Li  Li52  1  0.50000000  0.75000000  0.21835478  1
  Li  Li53  1  0.50000000  0.25000000  0.46835478  1
  Li  Li54  1  0.00000000  0.75000000  0.28164522  1
  Li  Li55  1  0.00000000  0.25000000  0.03164522  1
  Si  Si56  1  0.40060589  0.00000000  0.00000000  1
  Si  Si57  1  0.09939411  0.00000000  0.50000000  1
  Si  Si58  1  0.25000000  0.15060589  0.25000000  1
  Si  Si59  1  0.25000000  0.84939411  0.75000000  1
  Si  Si60  1  0.59939411  0.00000000  0.00000000  1
  Si  Si61  1  0.90060589  0.00000000  0.50000000  1
  Si  Si62  1  0.75000000  0.84939411  0.75000000  1
  Si  Si63  1  0.75000000  0.15060589  0.25000000  1
  Si  Si64  1  0.90060589  0.50000000  0.50000000  1
  Si  Si65  1  0.59939411  0.50000000  0.00000000  1
  Si  Si66  1  0.75000000  0.65060589  0.75000000  1
  Si  Si67  1  0.75000000  0.34939411  0.25000000  1
  Si  Si68  1  0.09939411  0.50000000  0.50000000  1
  Si  Si69  1  0.40060589  0.50000000  0.00000000  1
  Si  Si70  1  0.25000000  0.34939411  0.25000000  1
  Si  Si71  1  0.25000000  0.65060589  0.75000000  1
  Te  Te72  1  0.00000000  0.00000000  0.50000000  1
  Te  Te73  1  0.50000000  0.00000000  0.00000000  1
  Te  Te74  1  0.25000000  0.75000000  0.75000000  1
  Te  Te75  1  0.25000000  0.25000000  0.25000000  1
  Te  Te76  1  0.50000000  0.50000000  0.00000000  1
  Te  Te77  1  0.00000000  0.50000000  0.50000000  1
  Te  Te78  1  0.75000000  0.25000000  0.25000000  1
  Te  Te79  1  0.75000000  0.75000000  0.75000000  1
  Te  Te80  1  0.00000000  0.25000000  0.37500000  1
  Te  Te81  1  0.00000000  0.75000000  0.62500000  1
  Te  Te82  1  0.50000000  0.75000000  0.87500000  1
  Te  Te83  1  0.50000000  0.25000000  0.12500000  1
