# generated using pymatgen
data_LiYAs2P
_symmetry_space_group_name_H-M   'P 1'
_cell_length_a   5.31636831
_cell_length_b   5.38608861
_cell_length_c   6.91103533
_cell_angle_alpha   93.71865397
_cell_angle_beta   98.32873078
_cell_angle_gamma   105.21439958
_symmetry_Int_Tables_number   1
_chemical_formula_structural   LiYAs2P
_chemical_formula_sum   'Li2 Y2 As4 P2'
_cell_volume   187.84362945
_cell_formula_units_Z   2
loop_
 _symmetry_equiv_pos_site_id
 _symmetry_equiv_pos_as_xyz
  1  'x, y, z'
loop_
 _atom_site_type_symbol
 _atom_site_label
 _atom_site_symmetry_multiplicity
 _atom_site_fract_x
 _atom_site_fract_y
 _atom_site_fract_z
 _atom_site_occupancy
  P  P0  1  0.00000000  0.00000000  0.00000000  1
  P  P1  1  0.50000000  0.50000000  0.50000000  1
  As  As2  1  0.50000000  0.50000000  0.00000000  1
  As  As3  1  0.50000000  0.00000000  0.50000000  1
  As  As4  1  0.00000000  0.50000000  0.50000000  1
  As  As5  1  0.70383947  0.18335345  0.19973858  1
  Li  Li6  1  0.25708530  0.85255384  0.44650498  1
  Li  Li7  1  0.96107476  0.94267233  0.90203607  1
  Y  Y8  1  0.99020997  0.56283802  0.99150283  1
  Y  Y9  1  0.70957071  0.03559708  0.25930195  1
