# generated using pymatgen
data_Li2Y2P3Se2
_symmetry_space_group_name_H-M   'P 1'
_cell_length_a   4.85946652
_cell_length_b   5.10442066
_cell_length_c   7.13673462
_cell_angle_alpha   95.05280579
_cell_angle_beta   101.00396056
_cell_angle_gamma   110.29511267
_symmetry_Int_Tables_number   1
_chemical_formula_structural   Li2Y2P3Se2
_chemical_formula_sum   'Li2 Y2 P3 Se2'
_cell_volume   160.67766702
_cell_formula_units_Z   1
loop_
 _symmetry_equiv_pos_site_id
 _symmetry_equiv_pos_as_xyz
  1  'x, y, z'
loop_
 _atom_site_type_symbol
 _atom_site_label
 _atom_site_symmetry_multiplicity
 _atom_site_fract_x
 _atom_site_fract_y
 _atom_site_fract_z
 _atom_site_occupancy
  Y  Y0  1  0.00000000  0.00000000  0.00000000  1
  Y  Y1  1  0.50000000  0.50000000  0.50000000  1
  P  P2  1  0.50000000  0.50000000  0.00000000  1
  P  P3  1  0.50000000  0.00000000  0.50000000  1
  P  P4  1  0.00000000  0.50000000  0.50000000  1
  Se  Se5  1  0.25623367  0.00421396  0.20955390  1
  Se  Se6  1  0.54001581  0.42520164  0.16770761  1
  Li  Li7  1  0.85318977  0.93258200  0.31828069  1
  Li  Li8  1  0.91386309  0.65718452  0.46851340  1
