# generated using pymatgen
data_Li2YP2
_symmetry_space_group_name_H-M   'P 1'
_cell_length_a   5.20605773
_cell_length_b   5.26944777
_cell_length_c   7.08618621
_cell_angle_alpha   94.78374262
_cell_angle_beta   100.41799689
_cell_angle_gamma   109.21439282
_symmetry_Int_Tables_number   1
_chemical_formula_structural   Li2YP2
_chemical_formula_sum   'Li2 Y1 P2'
_cell_volume   178.39035584
_cell_formula_units_Z   1
loop_
 _symmetry_equiv_pos_site_id
 _symmetry_equiv_pos_as_xyz
  1  'x, y, z'
loop_
 _atom_site_type_symbol
 _atom_site_label
 _atom_site_symmetry_multiplicity
 _atom_site_fract_x
 _atom_site_fract_y
 _atom_site_fract_z
 _atom_site_occupancy
  P  P0  1  0.00000000  0.00000000  0.00000000  1
  P  P1  1  0.50000000  0.50000000  0.50000000  1
  Li  Li2  1  0.50000000  0.50000000  0.00000000  1
  Li  Li3  1  0.50000000  0.00000000  0.50000000  1
  Y  Y4  1  0.00000000  0.50000000  0.50000000  1
