# generated using pymatgen
data_Li4YScF
_symmetry_space_group_name_H-M   'P 1'
_cell_length_a   3.32469672
_cell_length_b   3.18944865
_cell_length_c   5.37747959
_cell_angle_alpha   105.24890618
_cell_angle_beta   105.19234273
_cell_angle_gamma   110.84487032
_symmetry_Int_Tables_number   1
_chemical_formula_structural   Li4YScF
_chemical_formula_sum   'Li4 Y1 Sc1 F1'
_cell_volume   47.24531272
_cell_formula_units_Z   1
loop_
 _symmetry_equiv_pos_site_id
 _symmetry_equiv_pos_as_xyz
  1  'x, y, z'
loop_
 _atom_site_type_symbol
 _atom_site_label
 _atom_site_symmetry_multiplicity
 _atom_site_fract_x
 _atom_site_fract_y
 _atom_site_fract_z
 _atom_site_occupancy
  F  F0  1  0.12500000  0.12500000  0.12500000  1
  Sc  Sc1  1  0.50000000  0.50000000  0.50000000  1
  Y  Y2  1  0.25000000  0.25000000  0.25000000  1
  Li  Li3  1  0.75000000  0.75000000  0.75000000  1
  Li  Li4  1  0.47368331  0.57758480  0.66114536  1
  Li  Li5  1  0.79213636  0.79827473  0.72603581  1
  Li  Li6  1  0.59317363  0.59304232  0.62994869  1
