# generated using pymatgen
data_Li3Y2P3Se2
_symmetry_space_group_name_H-M   'P 1'
_cell_length_a   4.59413697
_cell_length_b   4.83430597
_cell_length_c   6.96077355
_cell_angle_alpha   95.43633714
_cell_angle_beta   101.83921210
_cell_angle_gamma   111.83560566
_symmetry_Int_Tables_number   1
_chemical_formula_structural   Li3Y2P3Se2
_chemical_formula_sum   'Li3 Y2 P3 Se2'
_cell_volume   137.93908845
_cell_formula_units_Z   1
loop_
 _symmetry_equiv_pos_site_id
 _symmetry_equiv_pos_as_xyz
  1  'x, y, z'
loop_
 _atom_site_type_symbol
 _atom_site_label
 _atom_site_symmetry_multiplicity
 _atom_site_fract_x
 _atom_site_fract_y
 _atom_site_fract_z
 _atom_site_occupancy
  P  P0  1  0.12500000  0.00000000  0.25000000  1
  P  P1  1  0.00000000  0.00000000  0.00000000  1
  P  P2  1  0.37500000  0.00000000  0.25000000  1
  Se  Se3  1  0.25000000  0.25000000  0.25000000  1
  Se  Se4  1  0.00000000  0.25000000  0.12500000  1
  Li  Li5  1  0.37992578  0.21160198  0.52905034  1
  Li  Li6  1  0.10945943  0.59343993  0.01157723  1
  Li  Li7  1  0.58220123  0.30834342  0.40591691  1
  Y  Y8  1  0.62157544  0.37552021  0.95899784  1
  Y  Y9  1  0.45198981  0.96759337  0.53383430  1
