# generated using pymatgen
data_Li2Cu3P2Se
_symmetry_space_group_name_H-M   'P 1'
_cell_length_a   4.85033179
_cell_length_b   5.02365884
_cell_length_c   6.84840692
_cell_angle_alpha   94.93763549
_cell_angle_beta   99.92395981
_cell_angle_gamma   107.83656899
_symmetry_Int_Tables_number   1
_chemical_formula_structural   Li2Cu3P2Se
_chemical_formula_sum   'Li2 Cu3 P2 Se1'
_cell_volume   154.74824452
_cell_formula_units_Z   1
loop_
 _symmetry_equiv_pos_site_id
 _symmetry_equiv_pos_as_xyz
  1  'x, y, z'
loop_
 _atom_site_type_symbol
 _atom_site_label
 _atom_site_symmetry_multiplicity
 _atom_site_fract_x
 _atom_site_fract_y
 _atom_site_fract_z
 _atom_site_occupancy
  Se  Se0  1  0.12500000  0.00000000  0.25000000  1
  Cu  Cu1  1  0.00000000  0.00000000  0.00000000  1
  Cu  Cu2  1  0.37500000  0.00000000  0.25000000  1
  Cu  Cu3  1  0.25000000  0.25000000  0.25000000  1
  P  P4  1  0.00000000  0.25000000  0.12500000  1
  P  P5  1  0.99517039  0.10125899  0.58507916  1
  Li  Li6  1  0.06035578  0.57332744  0.35767779  1
  Li  Li7  1  0.03858844  0.96878999  0.11331297  1
