# generated using pymatgen
data_LiF
_symmetry_space_group_name_H-M   'P 1'
_cell_length_a   5.62636967
_cell_length_b   5.62636967
_cell_length_c   33.45458862
_cell_angle_alpha   90.00000000
_cell_angle_beta   90.00000000
_cell_angle_gamma   120.00000000
_symmetry_Int_Tables_number   1
_chemical_formula_structural   LiF
_chemical_formula_sum   'Li26 F26'
_cell_volume   917.15523944
_cell_formula_units_Z   26
loop_
 _symmetry_equiv_pos_site_id
 _symmetry_equiv_pos_as_xyz
  1  'x, y, z'
loop_
 _atom_site_type_symbol
 _atom_site_label
 _atom_site_symmetry_multiplicity
 _atom_site_fract_x
 _atom_site_fract_y
 _atom_site_fract_z
 _atom_site_occupancy
  F  F0  1  0.88283356  0.11716644  0.00000000  1
  F  F1  1  0.88283356  0.76566713  0.00000000  1
  F  F2  1  0.23433287  0.11716644  -0.00000000  1
  F  F3  1  0.02382894  0.52230719  0.99121102  1
  F  F4  1  0.47769281  0.50152175  0.99121102  1
  F  F5  1  0.49847825  0.97617106  0.99121102  1
  F  F6  1  0.47769281  0.97617106  0.00878898  1
  F  F7  1  0.49847825  0.52230719  0.00878898  1
  F  F8  1  0.02382894  0.50152175  0.00878898  1
  F  F9  1  0.66666667  0.33333333  0.51563471  1
  F  F10  1  0.66666667  0.33333333  0.48436529  1
  F  F11  1  0.04850781  0.80162361  0.58882648  1
  F  F12  1  0.19837639  0.24688420  0.58882648  1
  F  F13  1  0.75311580  0.95149219  0.58882648  1
  F  F14  1  0.19837639  0.95149219  0.41117352  1
  F  F15  1  0.75311580  0.80162361  0.41117352  1
  F  F16  1  0.04850781  0.24688420  0.41117352  1
  F  F17  1  0.33333333  0.66666667  0.00000000  1
  F  F18  1  0.10892952  0.53295614  0.13846436  1
  F  F19  1  0.46704386  0.57597338  0.13846436  1
  F  F20  1  0.42402662  0.89107048  0.13846436  1
  F  F21  1  0.46704386  0.89107048  0.86153564  1
  F  F22  1  0.42402662  0.53295614  0.86153564  1
  F  F23  1  0.10892952  0.57597338  0.86153564  1
  F  F24  1  0.00000000  0.00000000  0.54126612  1
  F  F25  1  0.00000000  0.00000000  0.45873388  1
  Li  Li26  1  0.33333333  0.66666667  0.83916849  1
  Li  Li27  1  0.33333333  0.66666667  0.16083151  1
  Li  Li28  1  0.00000000  0.00000000  0.50000000  1
  Li  Li29  1  0.86184983  0.16883745  0.14179073  1
  Li  Li30  1  -0.16883745  0.69301239  0.14179073  1
  Li  Li31  1  -0.69301239  -0.86184983  0.14179073  1
  Li  Li32  1  -0.16883745  -0.86184983  -0.14179073  1
  Li  Li33  1  -0.69301239  0.16883745  -0.14179073  1
  Li  Li34  1  0.86184983  0.69301239  -0.14179073  1
  Li  Li35  1  0.00000000  0.00000000  0.00000000  1
  Li  Li36  1  0.26006157  0.90366264  0.60582251  1
  Li  Li37  1  0.09633736  0.35639893  0.60582251  1
  Li  Li38  1  0.64360107  0.73993843  0.60582251  1
  Li  Li39  1  0.09633736  0.73993843  0.39417749  1
  Li  Li40  1  0.64360107  0.90366264  0.39417749  1
  Li  Li41  1  0.26006157  0.35639893  0.39417749  1
  Li  Li42  1  0.00000000  0.00000000  0.17235677  1
  Li  Li43  1  0.00000000  0.00000000  0.82764323  1
  Li  Li44  1  0.00000000  0.00000000  0.31163663  1
  Li  Li45  1  0.00000000  0.00000000  0.68836337  1
  Li  Li46  1  0.16136017  0.72521051  0.56723639  1
  Li  Li47  1  0.27478949  0.43614966  0.56723639  1
  Li  Li48  1  0.56385034  0.83863983  0.56723639  1
  Li  Li49  1  0.27478949  0.83863983  0.43276361  1
  Li  Li50  1  0.56385034  0.72521051  0.43276361  1
  Li  Li51  1  0.16136017  0.43614966  0.43276361  1
