# generated using pymatgen
data_LiF
_symmetry_space_group_name_H-M   'P 1'
_cell_length_a   7.92698579
_cell_length_b   7.92698579
_cell_length_c   18.05675214
_cell_angle_alpha   90.00000000
_cell_angle_beta   90.00000000
_cell_angle_gamma   120.00000000
_symmetry_Int_Tables_number   1
_chemical_formula_structural   LiF
_chemical_formula_sum   'Li26 F26'
_cell_volume   982.62187261
_cell_formula_units_Z   26
loop_
 _symmetry_equiv_pos_site_id
 _symmetry_equiv_pos_as_xyz
  1  'x, y, z'
loop_
 _atom_site_type_symbol
 _atom_site_label
 _atom_site_symmetry_multiplicity
 _atom_site_fract_x
 _atom_site_fract_y
 _atom_site_fract_z
 _atom_site_occupancy
  F  F0  1  0.22535569  0.49884702  0.51269942  1
  F  F1  1  -0.49884702  -0.27349133  0.51269942  1
  F  F2  1  0.27349133  -0.22535569  0.51269942  1
  F  F3  1  -0.22535569  -0.49884702  1.01269942  1
  F  F4  1  0.49884702  0.27349133  1.01269942  1
  F  F5  1  -0.27349133  0.22535569  1.01269942  1
  F  F6  1  -0.22535569  -0.49884702  -0.51269942  1
  F  F7  1  0.49884702  0.27349133  -0.51269942  1
  F  F8  1  -0.27349133  0.22535569  -0.51269942  1
  F  F9  1  0.22535569  0.49884702  -0.01269942  1
  F  F10  1  -0.49884702  -0.27349133  -0.01269942  1
  F  F11  1  0.27349133  -0.22535569  -0.01269942  1
  F  F12  1  0.50000000  0.00000000  -0.00000000  1
  F  F13  1  0.00000000  0.50000000  0.00000000  1
  F  F14  1  0.50000000  0.50000000  0.00000000  1
  F  F15  1  0.50000000  0.00000000  0.50000000  1
  F  F16  1  0.00000000  0.50000000  0.50000000  1
  F  F17  1  0.50000000  0.50000000  0.50000000  1
  F  F18  1  0.78810424  0.97899869  0.25000000  1
  F  F19  1  0.02100131  0.80910555  0.25000000  1
  F  F20  1  0.19089445  0.21189576  0.25000000  1
  F  F21  1  0.21189576  0.02100131  0.75000000  1
  F  F22  1  0.97899869  0.19089445  0.75000000  1
  F  F23  1  0.80910555  0.78810424  0.75000000  1
  F  F24  1  0.00000000  0.00000000  0.25000000  1
  F  F25  1  0.00000000  0.00000000  0.75000000  1
  Li  Li26  1  0.76934427  0.10284351  0.36740917  1
  Li  Li27  1  0.89715649  0.66650076  0.36740917  1
  Li  Li28  1  0.33349924  0.23065573  0.36740917  1
  Li  Li29  1  0.23065573  0.89715649  0.86740917  1
  Li  Li30  1  0.10284351  0.33349924  0.86740917  1
  Li  Li31  1  0.66650076  0.76934427  0.86740917  1
  Li  Li32  1  0.23065573  0.89715649  0.63259083  1
  Li  Li33  1  0.10284351  0.33349924  0.63259083  1
  Li  Li34  1  0.66650076  0.76934427  0.63259083  1
  Li  Li35  1  0.76934427  0.10284351  0.13259083  1
  Li  Li36  1  0.89715649  0.66650076  0.13259083  1
  Li  Li37  1  0.33349924  0.23065573  0.13259083  1
  Li  Li38  1  0.17201674  0.80678761  0.43466121  1
  Li  Li39  1  0.19321239  0.36522913  0.43466121  1
  Li  Li40  1  0.63477087  0.82798326  0.43466121  1
  Li  Li41  1  0.82798326  0.19321239  0.93466121  1
  Li  Li42  1  0.80678761  0.63477087  0.93466121  1
  Li  Li43  1  0.36522913  0.17201674  0.93466121  1
  Li  Li44  1  0.82798326  0.19321239  0.56533879  1
  Li  Li45  1  0.80678761  0.63477087  0.56533879  1
  Li  Li46  1  0.36522913  0.17201674  0.56533879  1
  Li  Li47  1  0.17201674  0.80678761  0.06533879  1
  Li  Li48  1  0.19321239  0.36522913  0.06533879  1
  Li  Li49  1  0.63477087  0.82798326  0.06533879  1
  Li  Li50  1  0.66666667  0.33333333  0.25000000  1
  Li  Li51  1  0.33333333  0.66666667  0.75000000  1
