# generated using pymatgen
data_LiF
_symmetry_space_group_name_H-M   'P 1'
_cell_length_a   7.95407660
_cell_length_b   8.47866430
_cell_length_c   8.29721401
_cell_angle_alpha   90.00000000
_cell_angle_beta   90.00000000
_cell_angle_gamma   90.00000000
_symmetry_Int_Tables_number   1
_chemical_formula_structural   LiF
_chemical_formula_sum   'Li24 F24'
_cell_volume   559.56365934
_cell_formula_units_Z   24
loop_
 _symmetry_equiv_pos_site_id
 _symmetry_equiv_pos_as_xyz
  1  'x, y, z'
loop_
 _atom_site_type_symbol
 _atom_site_label
 _atom_site_symmetry_multiplicity
 _atom_site_fract_x
 _atom_site_fract_y
 _atom_site_fract_z
 _atom_site_occupancy
  F  F0  1  0.83550748  0.01048933  0.43848221  1
  F  F1  1  0.66449252  0.98951067  0.93848221  1
  F  F2  1  0.16449252  0.51048933  0.56151779  1
  F  F3  1  0.33550748  0.48951067  0.06151779  1
  F  F4  1  0.16449252  0.98951067  0.56151779  1
  F  F5  1  0.33550748  0.01048933  0.06151779  1
  F  F6  1  0.83550748  0.48951067  0.43848221  1
  F  F7  1  0.66449252  0.51048933  0.93848221  1
  F  F8  1  0.00000000  0.00000000  0.50000000  1
  F  F9  1  0.50000000  0.00000000  0.00000000  1
  F  F10  1  0.00000000  0.50000000  0.50000000  1
  F  F11  1  0.50000000  0.50000000  0.00000000  1
  F  F12  1  0.48591644  0.25000000  0.98856821  1
  F  F13  1  0.01408356  0.75000000  0.48856821  1
  F  F14  1  0.51408356  0.75000000  0.01143179  1
  F  F15  1  0.98591644  0.25000000  0.51143179  1
  F  F16  1  0.86803137  0.51763807  0.77096081  1
  F  F17  1  0.63196863  0.48236193  0.27096081  1
  F  F18  1  0.13196863  0.01763807  0.22903919  1
  F  F19  1  0.36803137  0.98236193  0.72903919  1
  F  F20  1  0.13196863  0.48236193  0.22903919  1
  F  F21  1  0.36803137  0.51763807  0.72903919  1
  F  F22  1  0.86803137  0.98236193  0.77096081  1
  F  F23  1  0.63196863  0.01763807  0.27096081  1
  Li  Li24  1  0.83418270  0.62770938  0.07148923  1
  Li  Li25  1  -0.33418270  -0.62770938  0.57148923  1
  Li  Li26  1  -0.83418270  1.12770938  -0.07148923  1
  Li  Li27  1  1.33418270  -0.12770938  0.42851077  1
  Li  Li28  1  -0.83418270  -0.62770938  -0.07148923  1
  Li  Li29  1  1.33418270  0.62770938  0.42851077  1
  Li  Li30  1  0.83418270  -0.12770938  0.07148923  1
  Li  Li31  1  -0.33418270  1.12770938  0.57148923  1
  Li  Li32  1  0.38482638  0.25000000  0.07418828  1
  Li  Li33  1  0.11517362  0.75000000  0.57418828  1
  Li  Li34  1  0.61517362  0.75000000  0.92581172  1
  Li  Li35  1  0.88482638  0.25000000  0.42581172  1
  Li  Li36  1  0.00000000  0.00000000  0.00000000  1
  Li  Li37  1  0.50000000  0.00000000  0.50000000  1
  Li  Li38  1  0.00000000  0.50000000  0.00000000  1
  Li  Li39  1  0.50000000  0.50000000  0.50000000  1
  Li  Li40  1  0.30197663  0.06881716  0.32489650  1
  Li  Li41  1  0.19802337  0.93118284  0.82489650  1
  Li  Li42  1  0.69802337  0.56881716  0.67510350  1
  Li  Li43  1  0.80197663  0.43118284  0.17510350  1
  Li  Li44  1  0.69802337  0.93118284  0.67510350  1
  Li  Li45  1  0.80197663  0.06881716  0.17510350  1
  Li  Li46  1  0.30197663  0.43118284  0.32489650  1
  Li  Li47  1  0.19802337  0.56881716  0.82489650  1
