# generated using pymatgen
data_LiF
_symmetry_space_group_name_H-M   'P 1'
_cell_length_a   4.62383451
_cell_length_b   20.76136729
_cell_length_c   6.12836697
_cell_angle_alpha   90.00000000
_cell_angle_beta   90.00000000
_cell_angle_gamma   90.00000000
_symmetry_Int_Tables_number   1
_chemical_formula_structural   LiF
_chemical_formula_sum   'Li18 F18'
_cell_volume   588.30561901
_cell_formula_units_Z   18
loop_
 _symmetry_equiv_pos_site_id
 _symmetry_equiv_pos_as_xyz
  1  'x, y, z'
loop_
 _atom_site_type_symbol
 _atom_site_label
 _atom_site_symmetry_multiplicity
 _atom_site_fract_x
 _atom_site_fract_y
 _atom_site_fract_z
 _atom_site_occupancy
  F  F0  1  0.34383588  0.32519766  0.57409246  1
  F  F1  1  -0.34383588  -0.32519766  0.57409246  1
  F  F2  1  0.15616412  0.82519766  -0.07409246  1
  F  F3  1  0.84383588  0.17480234  -0.07409246  1
  F  F4  1  -0.34383588  -0.32519766  -0.57409246  1
  F  F5  1  0.34383588  0.32519766  -0.57409246  1
  F  F6  1  0.84383588  0.17480234  1.07409246  1
  F  F7  1  0.15616412  0.82519766  1.07409246  1
  F  F8  1  0.10005643  0.39014060  -0.00000000  1
  F  F9  1  0.89994357  0.60985940  0.00000000  1
  F  F10  1  0.39994357  0.89014060  0.50000000  1
  F  F11  1  0.60005643  0.10985940  0.50000000  1
  F  F12  1  0.00000000  0.00000000  0.08908140  1
  F  F13  1  0.50000000  0.50000000  0.41091860  1
  F  F14  1  0.00000000  0.00000000  0.91091860  1
  F  F15  1  0.50000000  0.50000000  0.58908140  1
  F  F16  1  0.00000000  0.50000000  0.50000000  1
  F  F17  1  0.50000000  0.00000000  0.00000000  1
  Li  Li18  1  0.44982112  0.44121709  0.33444835  1
  Li  Li19  1  0.55017888  0.55878291  0.33444835  1
  Li  Li20  1  0.05017888  0.94121709  0.16555165  1
  Li  Li21  1  0.94982112  0.05878291  0.16555165  1
  Li  Li22  1  0.55017888  0.55878291  0.66555165  1
  Li  Li23  1  0.44982112  0.44121709  0.66555165  1
  Li  Li24  1  0.94982112  0.05878291  0.83444835  1
  Li  Li25  1  0.05017888  0.94121709  0.83444835  1
  Li  Li26  1  0.87831835  0.47689365  0.00000000  1
  Li  Li27  1  0.12168165  0.52310635  0.00000000  1
  Li  Li28  1  0.62168165  0.97689365  0.50000000  1
  Li  Li29  1  0.37831835  0.02310635  0.50000000  1
  Li  Li30  1  0.00000000  0.00000000  0.50000000  1
  Li  Li31  1  0.50000000  0.50000000  0.00000000  1
  Li  Li32  1  0.00000000  0.50000000  0.82482678  1
  Li  Li33  1  0.50000000  0.00000000  0.67517322  1
  Li  Li34  1  0.00000000  0.50000000  0.17517322  1
  Li  Li35  1  0.50000000  0.00000000  0.32482678  1
