# generated using pymatgen
data_LiF
_symmetry_space_group_name_H-M   'P 1'
_cell_length_a   4.02584506
_cell_length_b   12.06312204
_cell_length_c   12.03260999
_cell_angle_alpha   90.00000000
_cell_angle_beta   90.00000000
_cell_angle_gamma   90.00000000
_symmetry_Int_Tables_number   1
_chemical_formula_structural   LiF
_chemical_formula_sum   'Li24 F24'
_cell_volume   584.35480272
_cell_formula_units_Z   24
loop_
 _symmetry_equiv_pos_site_id
 _symmetry_equiv_pos_as_xyz
  1  'x, y, z'
loop_
 _atom_site_type_symbol
 _atom_site_label
 _atom_site_symmetry_multiplicity
 _atom_site_fract_x
 _atom_site_fract_y
 _atom_site_fract_z
 _atom_site_occupancy
  F  F0  1  0.70819673  0.13541367  0.78497907  1
  F  F1  1  0.79180327  0.86458633  0.28497907  1
  F  F2  1  0.29180327  0.63541367  0.21502093  1
  F  F3  1  0.20819673  0.36458633  0.71502093  1
  F  F4  1  0.29180327  0.86458633  0.21502093  1
  F  F5  1  0.20819673  0.13541367  0.71502093  1
  F  F6  1  0.70819673  0.36458633  0.78497907  1
  F  F7  1  0.79180327  0.63541367  0.28497907  1
  F  F8  1  0.64303135  0.41646989  0.80573949  1
  F  F9  1  0.85696865  0.58353011  0.30573949  1
  F  F10  1  0.35696865  0.91646989  0.19426051  1
  F  F11  1  0.14303135  0.08353011  0.69426051  1
  F  F12  1  0.35696865  0.58353011  0.19426051  1
  F  F13  1  0.14303135  0.41646989  0.69426051  1
  F  F14  1  0.64303135  0.08353011  0.80573949  1
  F  F15  1  0.85696865  0.91646989  0.30573949  1
  F  F16  1  0.84889088  0.42857479  0.60559196  1
  F  F17  1  0.65110912  0.57142521  0.10559196  1
  F  F18  1  0.15110912  0.92857479  0.39440804  1
  F  F19  1  0.34889088  0.07142521  0.89440804  1
  F  F20  1  0.15110912  0.57142521  0.39440804  1
  F  F21  1  0.34889088  0.42857479  0.89440804  1
  F  F22  1  0.84889088  0.07142521  0.60559196  1
  F  F23  1  0.65110912  0.92857479  0.10559196  1
  Li  Li24  1  0.00000000  0.00000000  0.00000000  1
  Li  Li25  1  0.50000000  0.00000000  0.50000000  1
  Li  Li26  1  0.00000000  0.50000000  0.00000000  1
  Li  Li27  1  0.50000000  0.50000000  0.50000000  1
  Li  Li28  1  0.00000000  0.00000000  0.50000000  1
  Li  Li29  1  0.50000000  0.00000000  0.00000000  1
  Li  Li30  1  0.00000000  0.50000000  0.50000000  1
  Li  Li31  1  0.50000000  0.50000000  0.00000000  1
  Li  Li32  1  0.43442332  0.30688028  0.07477612  1
  Li  Li33  1  0.06557668  -0.30688028  0.57477612  1
  Li  Li34  1  -0.43442332  0.80688028  -0.07477612  1
  Li  Li35  1  0.93442332  0.19311972  0.42522388  1
  Li  Li36  1  -0.43442332  -0.30688028  -0.07477612  1
  Li  Li37  1  0.93442332  0.30688028  0.42522388  1
  Li  Li38  1  0.43442332  0.19311972  0.07477612  1
  Li  Li39  1  0.06557668  0.80688028  0.57477612  1
  Li  Li40  1  0.05308560  0.66555717  0.20090115  1
  Li  Li41  1  0.44691440  0.33444283  0.70090115  1
  Li  Li42  1  0.94691440  0.16555717  0.79909885  1
  Li  Li43  1  0.55308560  0.83444283  0.29909885  1
  Li  Li44  1  0.94691440  0.33444283  0.79909885  1
  Li  Li45  1  0.55308560  0.66555717  0.29909885  1
  Li  Li46  1  0.05308560  0.83444283  0.20090115  1
  Li  Li47  1  0.44691440  0.16555717  0.70090115  1
