# generated using pymatgen
data_LiF
_symmetry_space_group_name_H-M   'P 1'
_cell_length_a   7.11329820
_cell_length_b   7.68932176
_cell_length_c   7.05826466
_cell_angle_alpha   90.00000000
_cell_angle_beta   90.00000000
_cell_angle_gamma   90.00000000
_symmetry_Int_Tables_number   1
_chemical_formula_structural   LiF
_chemical_formula_sum   'Li20 F20'
_cell_volume   386.06193946
_cell_formula_units_Z   20
loop_
 _symmetry_equiv_pos_site_id
 _symmetry_equiv_pos_as_xyz
  1  'x, y, z'
loop_
 _atom_site_type_symbol
 _atom_site_label
 _atom_site_symmetry_multiplicity
 _atom_site_fract_x
 _atom_site_fract_y
 _atom_site_fract_z
 _atom_site_occupancy
  F  F0  1  0.00000000  0.00000000  0.00000000  1
  F  F1  1  0.50000000  0.00000000  0.50000000  1
  F  F2  1  0.00000000  0.50000000  0.00000000  1
  F  F3  1  0.50000000  0.50000000  0.50000000  1
  F  F4  1  0.08299607  0.02388302  0.12955754  1
  F  F5  1  0.41700393  0.97611698  0.62955754  1
  F  F6  1  0.91700393  0.52388302  0.87044246  1
  F  F7  1  0.58299607  0.47611698  0.37044246  1
  F  F8  1  0.91700393  0.97611698  0.87044246  1
  F  F9  1  0.58299607  0.02388302  0.37044246  1
  F  F10  1  0.08299607  0.47611698  0.12955754  1
  F  F11  1  0.41700393  0.52388302  0.62955754  1
  F  F12  1  0.93687336  0.06320708  0.28451670  1
  F  F13  1  0.56312664  0.93679292  0.78451670  1
  F  F14  1  0.06312664  0.56320708  0.71548330  1
  F  F15  1  0.43687336  0.43679292  0.21548330  1
  F  F16  1  0.06312664  0.93679292  0.71548330  1
  F  F17  1  0.43687336  0.06320708  0.21548330  1
  F  F18  1  0.93687336  0.43679292  0.28451670  1
  F  F19  1  0.56312664  0.56320708  0.78451670  1
  Li  Li20  1  0.18811850  0.25000000  0.48776133  1
  Li  Li21  1  0.31188150  0.75000000  0.98776133  1
  Li  Li22  1  0.81188150  0.75000000  0.51223867  1
  Li  Li23  1  0.68811850  0.25000000  0.01223867  1
  Li  Li24  1  0.25235873  0.25000000  0.97112876  1
  Li  Li25  1  0.24764127  0.75000000  0.47112876  1
  Li  Li26  1  0.74764127  0.75000000  0.02887124  1
  Li  Li27  1  0.75235873  0.25000000  0.52887124  1
  Li  Li28  1  0.30383671  0.03552842  0.86517168  1
  Li  Li29  1  0.19616329  -0.03552842  1.36517168  1
  Li  Li30  1  -0.30383671  0.53552842  -0.86517168  1
  Li  Li31  1  0.80383671  0.46447158  -0.36517168  1
  Li  Li32  1  -0.30383671  -0.03552842  -0.86517168  1
  Li  Li33  1  0.80383671  0.03552842  -0.36517168  1
  Li  Li34  1  0.30383671  0.46447158  0.86517168  1
  Li  Li35  1  0.19616329  0.53552842  1.36517168  1
  Li  Li36  1  0.00000000  0.00000000  0.50000000  1
  Li  Li37  1  0.50000000  0.00000000  -0.00000000  1
  Li  Li38  1  0.00000000  0.50000000  0.50000000  1
  Li  Li39  1  0.50000000  0.50000000  0.00000000  1
