# generated using pymatgen
data_LiF
_symmetry_space_group_name_H-M   'P 1'
_cell_length_a   7.32038515
_cell_length_b   6.10190906
_cell_length_c   9.95432758
_cell_angle_alpha   90.00000000
_cell_angle_beta   90.00000000
_cell_angle_gamma   90.00000000
_symmetry_Int_Tables_number   1
_chemical_formula_structural   LiF
_chemical_formula_sum   'Li28 F28'
_cell_volume   444.64313403
_cell_formula_units_Z   28
loop_
 _symmetry_equiv_pos_site_id
 _symmetry_equiv_pos_as_xyz
  1  'x, y, z'
loop_
 _atom_site_type_symbol
 _atom_site_label
 _atom_site_symmetry_multiplicity
 _atom_site_fract_x
 _atom_site_fract_y
 _atom_site_fract_z
 _atom_site_occupancy
  F  F0  1  0.94357389  0.86020846  0.94077175  1
  F  F1  1  -0.94357389  -0.86020846  0.94077175  1
  F  F2  1  -0.44357389  1.36020846  -0.94077175  1
  F  F3  1  1.44357389  -0.36020846  -0.94077175  1
  F  F4  1  -0.94357389  -0.86020846  -0.94077175  1
  F  F5  1  0.94357389  0.86020846  -0.94077175  1
  F  F6  1  1.44357389  -0.36020846  0.94077175  1
  F  F7  1  -0.44357389  1.36020846  0.94077175  1
  F  F8  1  0.63250660  0.86064507  0.50000000  1
  F  F9  1  0.36749340  0.13935493  0.50000000  1
  F  F10  1  0.86749340  0.36064507  0.50000000  1
  F  F11  1  0.13250660  0.63935493  0.50000000  1
  F  F12  1  0.68217351  0.67085562  0.19676436  1
  F  F13  1  0.31782649  0.32914438  0.19676436  1
  F  F14  1  0.81782649  0.17085562  0.80323564  1
  F  F15  1  0.18217351  0.82914438  0.80323564  1
  F  F16  1  0.31782649  0.32914438  0.80323564  1
  F  F17  1  0.68217351  0.67085562  0.80323564  1
  F  F18  1  0.18217351  0.82914438  0.19676436  1
  F  F19  1  0.81782649  0.17085562  0.19676436  1
  F  F20  1  0.37514232  0.01559796  0.18500845  1
  F  F21  1  0.62485768  0.98440204  0.18500845  1
  F  F22  1  0.12485768  0.51559796  0.81499155  1
  F  F23  1  0.87514232  0.48440204  0.81499155  1
  F  F24  1  0.62485768  0.98440204  0.81499155  1
  F  F25  1  0.37514232  0.01559796  0.81499155  1
  F  F26  1  0.87514232  0.48440204  0.18500845  1
  F  F27  1  0.12485768  0.51559796  0.18500845  1
  Li  Li28  1  0.00000000  0.50000000  0.00000000  1
  Li  Li29  1  0.50000000  -0.00000000  -0.00000000  1
  Li  Li30  1  0.90035392  0.30990507  0.88645165  1
  Li  Li31  1  0.09964608  0.69009493  0.88645165  1
  Li  Li32  1  0.59964608  0.80990507  0.11354835  1
  Li  Li33  1  0.40035392  0.19009493  0.11354835  1
  Li  Li34  1  0.09964608  0.69009493  0.11354835  1
  Li  Li35  1  0.90035392  0.30990507  0.11354835  1
  Li  Li36  1  0.40035392  0.19009493  0.88645165  1
  Li  Li37  1  0.59964608  0.80990507  0.88645165  1
  Li  Li38  1  0.79100596  0.47368596  0.57995743  1
  Li  Li39  1  0.20899404  0.52631404  0.57995743  1
  Li  Li40  1  0.70899404  0.97368596  0.42004257  1
  Li  Li41  1  0.29100596  0.02631404  0.42004257  1
  Li  Li42  1  0.20899404  0.52631404  0.42004257  1
  Li  Li43  1  0.79100596  0.47368596  0.42004257  1
  Li  Li44  1  0.29100596  0.02631404  0.57995743  1
  Li  Li45  1  0.70899404  0.97368596  0.57995743  1
  Li  Li46  1  0.00000000  0.00000000  0.00000000  1
  Li  Li47  1  0.50000000  0.50000000  -0.00000000  1
  Li  Li48  1  0.00000000  0.00000000  0.31237225  1
  Li  Li49  1  0.50000000  0.50000000  0.68762775  1
  Li  Li50  1  0.00000000  0.00000000  0.68762775  1
  Li  Li51  1  0.50000000  0.50000000  0.31237225  1
  Li  Li52  1  0.00000000  0.50000000  0.84855037  1
  Li  Li53  1  0.50000000  -0.00000000  0.15144963  1
  Li  Li54  1  0.00000000  0.50000000  0.15144963  1
  Li  Li55  1  0.50000000  -0.00000000  0.84855037  1
