# generated using pymatgen
data_LiF
_symmetry_space_group_name_H-M   'P 1'
_cell_length_a   11.01040411
_cell_length_b   10.71173936
_cell_length_c   13.39231831
_cell_angle_alpha   90.00000000
_cell_angle_beta   90.00000000
_cell_angle_gamma   90.00000000
_symmetry_Int_Tables_number   1
_chemical_formula_structural   LiF
_chemical_formula_sum   'Li52 F52'
_cell_volume   1579.49777592
_cell_formula_units_Z   52
loop_
 _symmetry_equiv_pos_site_id
 _symmetry_equiv_pos_as_xyz
  1  'x, y, z'
loop_
 _atom_site_type_symbol
 _atom_site_label
 _atom_site_symmetry_multiplicity
 _atom_site_fract_x
 _atom_site_fract_y
 _atom_site_fract_z
 _atom_site_occupancy
  F  F0  1  0.00000000  0.00000000  0.50000000  1
  F  F1  1  0.50000000  0.00000000  0.00000000  1
  F  F2  1  0.00000000  0.50000000  0.50000000  1
  F  F3  1  0.50000000  0.50000000  0.00000000  1
  F  F4  1  0.95978740  0.92464514  0.80131072  1
  F  F5  1  0.54021260  0.07535486  0.30131072  1
  F  F6  1  0.04021260  0.42464514  0.19868928  1
  F  F7  1  0.45978740  0.57535486  0.69868928  1
  F  F8  1  0.04021260  0.07535486  0.19868928  1
  F  F9  1  0.45978740  0.92464514  0.69868928  1
  F  F10  1  0.95978740  0.57535486  0.80131072  1
  F  F11  1  0.54021260  0.42464514  0.30131072  1
  F  F12  1  0.77792873  0.87022124  0.34180572  1
  F  F13  1  0.72207127  0.12977876  0.84180572  1
  F  F14  1  0.22207127  0.37022124  0.65819428  1
  F  F15  1  0.27792873  0.62977876  0.15819428  1
  F  F16  1  0.22207127  0.12977876  0.65819428  1
  F  F17  1  0.27792873  0.87022124  0.15819428  1
  F  F18  1  0.77792873  0.62977876  0.34180572  1
  F  F19  1  0.72207127  0.37022124  0.84180572  1
  F  F20  1  0.14735837  0.65255337  0.58436486  1
  F  F21  1  0.35264163  0.34744663  0.08436486  1
  F  F22  1  0.85264163  0.15255337  0.41563514  1
  F  F23  1  0.64735837  0.84744663  0.91563514  1
  F  F24  1  0.85264163  0.34744663  0.41563514  1
  F  F25  1  0.64735837  0.65255337  0.91563514  1
  F  F26  1  0.14735837  0.84744663  0.58436486  1
  F  F27  1  0.35264163  0.15255337  0.08436486  1
  F  F28  1  0.65574358  0.82799984  0.37341609  1
  F  F29  1  0.84425642  0.17200016  0.87341609  1
  F  F30  1  0.34425642  0.32799984  0.62658391  1
  F  F31  1  0.15574358  0.67200016  0.12658391  1
  F  F32  1  0.34425642  0.17200016  0.62658391  1
  F  F33  1  0.15574358  0.82799984  0.12658391  1
  F  F34  1  0.65574358  0.67200016  0.37341609  1
  F  F35  1  0.84425642  0.32799984  0.87341609  1
  F  F36  1  0.23443737  0.95695780  0.93966261  1
  F  F37  1  0.26556263  0.04304220  0.43966261  1
  F  F38  1  0.76556263  0.45695780  0.06033739  1
  F  F39  1  0.73443737  0.54304220  0.56033739  1
  F  F40  1  0.76556263  0.04304220  0.06033739  1
  F  F41  1  0.73443737  0.95695780  0.56033739  1
  F  F42  1  0.23443737  0.54304220  0.93966261  1
  F  F43  1  0.26556263  0.45695780  0.43966261  1
  F  F44  1  0.43374647  0.78629895  0.12076938  1
  F  F45  1  0.06625353  0.21370105  0.62076938  1
  F  F46  1  0.56625353  0.28629895  0.87923062  1
  F  F47  1  0.93374647  0.71370105  0.37923062  1
  F  F48  1  0.56625353  0.21370105  0.87923062  1
  F  F49  1  0.93374647  0.78629895  0.37923062  1
  F  F50  1  0.43374647  0.71370105  0.12076938  1
  F  F51  1  0.06625353  0.28629895  0.62076938  1
  Li  Li52  1  0.17290395  0.25000000  0.41971992  1
  Li  Li53  1  0.32709605  0.75000000  0.91971992  1
  Li  Li54  1  0.82709605  0.75000000  0.58028008  1
  Li  Li55  1  0.67290395  0.25000000  0.08028008  1
  Li  Li56  1  0.14625364  0.12664107  0.51209017  1
  Li  Li57  1  0.35374636  -0.12664107  1.01209017  1
  Li  Li58  1  -0.14625364  0.62664107  -0.51209017  1
  Li  Li59  1  0.64625364  0.37335893  -0.01209017  1
  Li  Li60  1  -0.14625364  -0.12664107  -0.51209017  1
  Li  Li61  1  0.64625364  0.12664107  -0.01209017  1
  Li  Li62  1  0.14625364  0.37335893  0.51209017  1
  Li  Li63  1  0.35374636  0.62664107  1.01209017  1
  Li  Li64  1  0.16942448  0.34203725  0.02454204  1
  Li  Li65  1  0.33057552  0.65796275  0.52454204  1
  Li  Li66  1  0.83057552  0.84203725  0.97545796  1
  Li  Li67  1  0.66942448  0.15796275  0.47545796  1
  Li  Li68  1  0.83057552  0.65796275  0.97545796  1
  Li  Li69  1  0.66942448  0.34203725  0.47545796  1
  Li  Li70  1  0.16942448  0.15796275  0.02454204  1
  Li  Li71  1  0.33057552  0.84203725  0.52454204  1
  Li  Li72  1  0.39273312  0.42809749  0.48332711  1
  Li  Li73  1  0.10726688  0.57190251  0.98332711  1
  Li  Li74  1  0.60726688  0.92809749  0.51667289  1
  Li  Li75  1  0.89273312  0.07190251  0.01667289  1
  Li  Li76  1  0.60726688  0.57190251  0.51667289  1
  Li  Li77  1  0.89273312  0.42809749  0.01667289  1
  Li  Li78  1  0.39273312  0.07190251  0.48332711  1
  Li  Li79  1  0.10726688  0.92809749  0.98332711  1
  Li  Li80  1  0.40963934  0.25000000  0.51734717  1
  Li  Li81  1  0.09036066  0.75000000  0.01734717  1
  Li  Li82  1  0.59036066  0.75000000  0.48265283  1
  Li  Li83  1  0.90963934  0.25000000  0.98265283  1
  Li  Li84  1  0.51503676  0.47140900  0.82570361  1
  Li  Li85  1  0.98496324  0.52859100  0.32570361  1
  Li  Li86  1  0.48496324  0.97140900  0.17429639  1
  Li  Li87  1  0.01503676  0.02859100  0.67429639  1
  Li  Li88  1  0.48496324  0.52859100  0.17429639  1
  Li  Li89  1  0.01503676  0.47140900  0.67429639  1
  Li  Li90  1  0.51503676  0.02859100  0.82570361  1
  Li  Li91  1  0.98496324  0.97140900  0.32570361  1
  Li  Li92  1  0.89566513  0.90596309  0.72626933  1
  Li  Li93  1  0.60433487  0.09403691  0.22626933  1
  Li  Li94  1  0.10433487  0.40596309  0.27373067  1
  Li  Li95  1  0.39566513  0.59403691  0.77373067  1
  Li  Li96  1  0.10433487  0.09403691  0.27373067  1
  Li  Li97  1  0.39566513  0.90596309  0.77373067  1
  Li  Li98  1  0.89566513  0.59403691  0.72626933  1
  Li  Li99  1  0.60433487  0.40596309  0.22626933  1
  Li  Li100  1  0.31238623  0.25000000  0.33974980  1
  Li  Li101  1  0.18761377  0.75000000  0.83974980  1
  Li  Li102  1  0.68761377  0.75000000  0.66025020  1
  Li  Li103  1  0.81238623  0.25000000  0.16025020  1
