# generated using pymatgen
data_LiF
_symmetry_space_group_name_H-M   'P 1'
_cell_length_a   10.73266338
_cell_length_b   11.70082441
_cell_length_c   8.15204224
_cell_angle_alpha   90.00000000
_cell_angle_beta   90.00000000
_cell_angle_gamma   90.00000000
_symmetry_Int_Tables_number   1
_chemical_formula_structural   LiF
_chemical_formula_sum   'Li28 F28'
_cell_volume   1023.74169468
_cell_formula_units_Z   28
loop_
 _symmetry_equiv_pos_site_id
 _symmetry_equiv_pos_as_xyz
  1  'x, y, z'
loop_
 _atom_site_type_symbol
 _atom_site_label
 _atom_site_symmetry_multiplicity
 _atom_site_fract_x
 _atom_site_fract_y
 _atom_site_fract_z
 _atom_site_occupancy
  F  F0  1  0.06173332  0.04195530  0.25962444  1
  F  F1  1  -0.06173332  -0.04195530  0.25962444  1
  F  F2  1  0.43826668  0.54195530  -0.25962444  1
  F  F3  1  0.56173332  0.45804470  -0.25962444  1
  F  F4  1  -0.06173332  -0.04195530  -0.25962444  1
  F  F5  1  0.06173332  0.04195530  -0.25962444  1
  F  F6  1  0.56173332  0.45804470  0.25962444  1
  F  F7  1  0.43826668  0.54195530  0.25962444  1
  F  F8  1  0.45068012  0.34877246  0.50000000  1
  F  F9  1  0.54931988  0.65122754  0.50000000  1
  F  F10  1  0.04931988  0.84877246  0.50000000  1
  F  F11  1  0.95068012  0.15122754  0.50000000  1
  F  F12  1  0.66817911  0.07130985  0.50000000  1
  F  F13  1  0.33182089  0.92869015  0.50000000  1
  F  F14  1  0.83182089  0.57130985  0.50000000  1
  F  F15  1  0.16817911  0.42869015  0.50000000  1
  F  F16  1  0.77456001  0.56845422  0.95100275  1
  F  F17  1  0.22543999  0.43154578  0.95100275  1
  F  F18  1  0.72543999  0.06845422  0.04899725  1
  F  F19  1  0.27456001  0.93154578  0.04899725  1
  F  F20  1  0.22543999  0.43154578  0.04899725  1
  F  F21  1  0.77456001  0.56845422  0.04899725  1
  F  F22  1  0.27456001  0.93154578  0.95100275  1
  F  F23  1  0.72543999  0.06845422  0.95100275  1
  F  F24  1  0.10618365  0.05807966  -0.00000000  1
  F  F25  1  0.89381635  0.94192034  0.00000000  1
  F  F26  1  0.39381635  0.55807966  0.00000000  1
  F  F27  1  0.60618365  0.44192034  0.00000000  1
  Li  Li28  1  0.00000000  0.00000000  0.00000000  1
  Li  Li29  1  0.50000000  0.50000000  0.00000000  1
  Li  Li30  1  0.12523105  0.82281505  0.37420349  1
  Li  Li31  1  0.87476895  0.17718495  0.37420349  1
  Li  Li32  1  0.37476895  0.32281505  0.62579651  1
  Li  Li33  1  0.62523105  0.67718495  0.62579651  1
  Li  Li34  1  0.87476895  0.17718495  0.62579651  1
  Li  Li35  1  0.12523105  0.82281505  0.62579651  1
  Li  Li36  1  0.62523105  0.67718495  0.37420349  1
  Li  Li37  1  0.37476895  0.32281505  0.37420349  1
  Li  Li38  1  0.34334775  0.84107312  0.08891322  1
  Li  Li39  1  0.65665225  0.15892688  0.08891322  1
  Li  Li40  1  0.15665225  0.34107312  0.91108678  1
  Li  Li41  1  0.84334775  0.65892688  0.91108678  1
  Li  Li42  1  0.65665225  0.15892688  0.91108678  1
  Li  Li43  1  0.34334775  0.84107312  0.91108678  1
  Li  Li44  1  0.84334775  0.65892688  0.08891322  1
  Li  Li45  1  0.15665225  0.34107312  0.08891322  1
  Li  Li46  1  0.37508031  0.97921894  0.66822219  1
  Li  Li47  1  0.62491969  0.02078106  0.66822219  1
  Li  Li48  1  0.12491969  0.47921894  0.33177781  1
  Li  Li49  1  0.87508031  0.52078106  0.33177781  1
  Li  Li50  1  0.62491969  0.02078106  0.33177781  1
  Li  Li51  1  0.37508031  0.97921894  0.33177781  1
  Li  Li52  1  0.87508031  0.52078106  0.66822219  1
  Li  Li53  1  0.12491969  0.47921894  0.66822219  1
  Li  Li54  1  0.00000000  0.50000000  0.00000000  1
  Li  Li55  1  0.50000000  0.00000000  -0.00000000  1
