# generated using pymatgen
data_LiF
_symmetry_space_group_name_H-M   'P 1'
_cell_length_a   6.50569150
_cell_length_b   9.24352037
_cell_length_c   6.05233484
_cell_angle_alpha   90.00000000
_cell_angle_beta   90.00000000
_cell_angle_gamma   90.00000000
_symmetry_Int_Tables_number   1
_chemical_formula_structural   LiF
_chemical_formula_sum   'Li12 F12'
_cell_volume   363.96013293
_cell_formula_units_Z   12
loop_
 _symmetry_equiv_pos_site_id
 _symmetry_equiv_pos_as_xyz
  1  'x, y, z'
loop_
 _atom_site_type_symbol
 _atom_site_label
 _atom_site_symmetry_multiplicity
 _atom_site_fract_x
 _atom_site_fract_y
 _atom_site_fract_z
 _atom_site_occupancy
  F  F0  1  0.00000000  0.50000000  0.31476947  1
  F  F1  1  0.50000000  0.00000000  0.68523053  1
  F  F2  1  0.00000000  0.50000000  0.68523053  1
  F  F3  1  0.50000000  0.00000000  0.31476947  1
  F  F4  1  0.59293749  0.23194774  0.45072194  1
  F  F5  1  -0.59293749  -0.23194774  0.45072194  1
  F  F6  1  -0.09293749  0.73194774  -0.45072194  1
  F  F7  1  1.09293749  0.26805226  -0.45072194  1
  F  F8  1  -0.59293749  -0.23194774  -0.45072194  1
  F  F9  1  0.59293749  0.23194774  -0.45072194  1
  F  F10  1  1.09293749  0.26805226  0.45072194  1
  F  F11  1  -0.09293749  0.73194774  0.45072194  1
  Li  Li12  1  0.47819198  0.30062434  0.50000000  1
  Li  Li13  1  0.52180802  0.69937566  0.50000000  1
  Li  Li14  1  0.02180802  0.80062434  0.50000000  1
  Li  Li15  1  0.97819198  0.19937566  0.50000000  1
  Li  Li16  1  0.23775197  0.96103296  0.23915295  1
  Li  Li17  1  0.76224803  0.03896704  0.23915295  1
  Li  Li18  1  0.26224803  0.46103296  0.76084705  1
  Li  Li19  1  0.73775197  0.53896704  0.76084705  1
  Li  Li20  1  0.76224803  0.03896704  0.76084705  1
  Li  Li21  1  0.23775197  0.96103296  0.76084705  1
  Li  Li22  1  0.73775197  0.53896704  0.23915295  1
  Li  Li23  1  0.26224803  0.46103296  0.23915295  1
