# generated using pymatgen
data_LiY2MoP3Se2
_symmetry_space_group_name_H-M   'P 1'
_cell_length_a   6.11532399
_cell_length_b   6.40614872
_cell_length_c   7.59314183
_cell_angle_alpha   92.88997559
_cell_angle_beta   96.29376602
_cell_angle_gamma   101.60788335
_symmetry_Int_Tables_number   1
_chemical_formula_structural   LiY2MoP3Se2
_chemical_formula_sum   'Li1 Y2 Mo1 P3 Se2'
_cell_volume   288.82281754
_cell_formula_units_Z   1
loop_
 _symmetry_equiv_pos_site_id
 _symmetry_equiv_pos_as_xyz
  1  'x, y, z'
loop_
 _atom_site_type_symbol
 _atom_site_label
 _atom_site_symmetry_multiplicity
 _atom_site_fract_x
 _atom_site_fract_y
 _atom_site_fract_z
 _atom_site_occupancy
  Se  Se0  1  0.12500000  0.00000000  0.25000000  1
  Se  Se1  1  0.00000000  0.00000000  0.00000000  1
  Y  Y2  1  0.37500000  0.00000000  0.25000000  1
  Y  Y3  1  0.25000000  0.25000000  0.25000000  1
  P  P4  1  0.00000000  0.25000000  0.12500000  1
  P  P5  1  0.06345478  0.64234310  0.96278658  1
  P  P6  1  0.71694544  0.75765771  0.98607140  1
  Mo  Mo7  1  0.40057354  0.47062209  0.23585000  1
  Li  Li8  1  0.15782472  0.24083653  0.51664140  1
