# generated using pymatgen
data_LiF
_symmetry_space_group_name_H-M   'P 1'
_cell_length_a   8.62093839
_cell_length_b   5.43820341
_cell_length_c   13.10068425
_cell_angle_alpha   90.00000000
_cell_angle_beta   90.00000000
_cell_angle_gamma   90.00000000
_symmetry_Int_Tables_number   1
_chemical_formula_structural   LiF
_chemical_formula_sum   'Li16 F16'
_cell_volume   614.19173539
_cell_formula_units_Z   16
loop_
 _symmetry_equiv_pos_site_id
 _symmetry_equiv_pos_as_xyz
  1  'x, y, z'
loop_
 _atom_site_type_symbol
 _atom_site_label
 _atom_site_symmetry_multiplicity
 _atom_site_fract_x
 _atom_site_fract_y
 _atom_site_fract_z
 _atom_site_occupancy
  F  F0  1  0.00000000  0.50000000  0.50000000  1
  F  F1  1  0.50000000  0.00000000  0.50000000  1
  F  F2  1  0.00000000  0.50000000  0.12407923  1
  F  F3  1  0.50000000  0.00000000  0.87592077  1
  F  F4  1  0.00000000  0.50000000  0.87592077  1
  F  F5  1  0.50000000  0.00000000  0.12407923  1
  F  F6  1  0.44887052  0.46971872  0.39304232  1
  F  F7  1  -0.44887052  -0.46971872  0.39304232  1
  F  F8  1  0.05112948  0.96971872  -0.39304232  1
  F  F9  1  0.94887052  0.03028128  -0.39304232  1
  F  F10  1  -0.44887052  -0.46971872  -0.39304232  1
  F  F11  1  0.44887052  0.46971872  -0.39304232  1
  F  F12  1  0.94887052  0.03028128  0.39304232  1
  F  F13  1  0.05112948  0.96971872  0.39304232  1
  F  F14  1  0.00000000  0.00000000  0.00000000  1
  F  F15  1  0.50000000  0.50000000  0.00000000  1
  Li  Li16  1  0.86303214  0.43325254  0.42353971  1
  Li  Li17  1  0.13696786  0.56674746  0.42353971  1
  Li  Li18  1  0.63696786  0.93325254  0.57646029  1
  Li  Li19  1  0.36303214  0.06674746  0.57646029  1
  Li  Li20  1  0.13696786  0.56674746  0.57646029  1
  Li  Li21  1  0.86303214  0.43325254  0.57646029  1
  Li  Li22  1  0.36303214  0.06674746  0.42353971  1
  Li  Li23  1  0.63696786  0.93325254  0.42353971  1
  Li  Li24  1  0.66486289  0.29038754  0.00000000  1
  Li  Li25  1  0.33513711  0.70961246  0.00000000  1
  Li  Li26  1  0.83513711  0.79038754  0.00000000  1
  Li  Li27  1  0.16486289  0.20961246  0.00000000  1
  Li  Li28  1  0.87730302  0.74668663  0.50000000  1
  Li  Li29  1  0.12269698  0.25331337  0.50000000  1
  Li  Li30  1  0.62269698  0.24668663  0.50000000  1
  Li  Li31  1  0.37730302  0.75331337  0.50000000  1
