# generated using pymatgen
data_LiF
_symmetry_space_group_name_H-M   'P 1'
_cell_length_a   8.91586661
_cell_length_b   8.91586661
_cell_length_c   6.50946031
_cell_angle_alpha   90.00000000
_cell_angle_beta   90.00000000
_cell_angle_gamma   120.00000000
_symmetry_Int_Tables_number   1
_chemical_formula_structural   LiF
_chemical_formula_sum   'Li28 F28'
_cell_volume   448.12868044
_cell_formula_units_Z   28
loop_
 _symmetry_equiv_pos_site_id
 _symmetry_equiv_pos_as_xyz
  1  'x, y, z'
loop_
 _atom_site_type_symbol
 _atom_site_label
 _atom_site_symmetry_multiplicity
 _atom_site_fract_x
 _atom_site_fract_y
 _atom_site_fract_z
 _atom_site_occupancy
  F  F0  1  0.71534787  0.39138872  0.09923499  1
  F  F1  1  0.60861128  0.32395915  0.09923499  1
  F  F2  1  0.67604085  0.28465213  0.09923499  1
  F  F3  1  0.60861128  0.28465213  0.90076501  1
  F  F4  1  0.67604085  0.39138872  0.90076501  1
  F  F5  1  0.71534787  0.32395915  0.90076501  1
  F  F6  1  0.25239563  0.74760437  0.50000000  1
  F  F7  1  0.25239563  0.50479125  0.50000000  1
  F  F8  1  0.49520875  0.74760437  0.50000000  1
  F  F9  1  0.27626354  0.56373373  0.41922520  1
  F  F10  1  0.43626627  0.71252981  0.41922520  1
  F  F11  1  0.28747019  0.72373646  0.41922520  1
  F  F12  1  0.43626627  0.72373646  0.58077480  1
  F  F13  1  0.28747019  0.56373373  0.58077480  1
  F  F14  1  0.27626354  0.71252981  0.58077480  1
  F  F15  1  0.17104923  0.62254113  0.26747784  1
  F  F16  1  0.37745887  0.54850809  0.26747784  1
  F  F17  1  0.45149191  0.82895077  0.26747784  1
  F  F18  1  0.37745887  0.82895077  0.73252216  1
  F  F19  1  0.45149191  0.62254113  0.73252216  1
  F  F20  1  0.17104923  0.54850809  0.73252216  1
  F  F21  1  0.33333333  0.66666667  0.34470380  1
  F  F22  1  0.33333333  0.66666667  0.65529620  1
  F  F23  1  0.76230683  0.23769317  0.50000000  1
  F  F24  1  0.76230683  0.52461366  0.50000000  1
  F  F25  1  0.47538634  0.23769317  0.50000000  1
  F  F26  1  0.00000000  0.00000000  0.75158592  1
  F  F27  1  0.00000000  0.00000000  0.24841408  1
  Li  Li28  1  0.49312905  0.50687095  0.50000000  1
  Li  Li29  1  0.49312905  0.98625811  0.50000000  1
  Li  Li30  1  0.01374189  0.50687095  0.50000000  1
  Li  Li31  1  0.88544673  0.28362112  0.26254433  1
  Li  Li32  1  -0.28362112  0.60182561  0.26254433  1
  Li  Li33  1  -0.60182561  -0.88544673  0.26254433  1
  Li  Li34  1  -0.28362112  -0.88544673  -0.26254433  1
  Li  Li35  1  -0.60182561  0.28362112  -0.26254433  1
  Li  Li36  1  0.88544673  0.60182561  -0.26254433  1
  Li  Li37  1  0.53979597  0.80852964  0.76732534  1
  Li  Li38  1  0.19147036  0.73126633  0.76732534  1
  Li  Li39  1  0.26873367  0.46020403  0.76732534  1
  Li  Li40  1  0.19147036  0.46020403  0.23267466  1
  Li  Li41  1  0.26873367  0.80852964  0.23267466  1
  Li  Li42  1  0.53979597  0.73126633  0.23267466  1
  Li  Li43  1  0.90868148  0.11215791  0.25255663  1
  Li  Li44  1  0.88784209  0.79652357  0.25255663  1
  Li  Li45  1  0.20347643  0.09131852  0.25255663  1
  Li  Li46  1  0.88784209  0.09131852  0.74744337  1
  Li  Li47  1  0.20347643  0.11215791  0.74744337  1
  Li  Li48  1  0.90868148  0.79652357  0.74744337  1
  Li  Li49  1  0.66666667  0.33333333  0.25323020  1
  Li  Li50  1  0.66666667  0.33333333  0.74676980  1
  Li  Li51  1  0.00000000  0.00000000  0.00000000  1
  Li  Li52  1  0.33333333  0.66666667  0.50000000  1
  Li  Li53  1  0.55896724  0.44103276  -0.00000000  1
  Li  Li54  1  0.55896724  0.11793448  -0.00000000  1
  Li  Li55  1  0.88206552  0.44103276  0.00000000  1
