# generated using pymatgen
data_Li2Si4Te3F12
_symmetry_space_group_name_H-M   'P 1'
_cell_length_a   17.01327402
_cell_length_b   13.31701295
_cell_length_c   5.35602968
_cell_angle_alpha   90.00000000
_cell_angle_beta   90.00000000
_cell_angle_gamma   90.00000000
_symmetry_Int_Tables_number   1
_chemical_formula_structural   Li2Si4Te3F12
_chemical_formula_sum   'Li8 Si16 Te12 F48'
_cell_volume   1213.49416907
_cell_formula_units_Z   4
loop_
 _symmetry_equiv_pos_site_id
 _symmetry_equiv_pos_as_xyz
  1  'x, y, z'
loop_
 _atom_site_type_symbol
 _atom_site_label
 _atom_site_symmetry_multiplicity
 _atom_site_fract_x
 _atom_site_fract_y
 _atom_site_fract_z
 _atom_site_occupancy
  F  F0  1  0.20815279  0.05315940  0.92275581  1
  F  F1  1  0.79184721  0.94684060  0.92275581  1
  F  F2  1  0.29184721  0.55315940  0.07724419  1
  F  F3  1  0.70815279  0.44684060  0.07724419  1
  F  F4  1  0.79184721  0.94684060  0.07724419  1
  F  F5  1  0.20815279  0.05315940  0.07724419  1
  F  F6  1  0.70815279  0.44684060  0.92275581  1
  F  F7  1  0.29184721  0.55315940  0.92275581  1
  F  F8  1  0.00000000  0.50000000  0.59026964  1
  F  F9  1  0.50000000  0.00000000  0.40973036  1
  F  F10  1  0.00000000  0.50000000  0.40973036  1
  F  F11  1  0.50000000  0.00000000  0.59026964  1
  F  F12  1  0.10914696  0.46137464  0.31630582  1
  F  F13  1  0.89085304  0.53862536  0.31630582  1
  F  F14  1  0.39085304  0.96137464  0.68369418  1
  F  F15  1  0.60914696  0.03862536  0.68369418  1
  F  F16  1  0.89085304  0.53862536  0.68369418  1
  F  F17  1  0.10914696  0.46137464  0.68369418  1
  F  F18  1  0.60914696  0.03862536  0.31630582  1
  F  F19  1  0.39085304  0.96137464  0.31630582  1
  F  F20  1  0.59181992  0.41069789  0.50000000  1
  F  F21  1  0.40818008  0.58930211  0.50000000  1
  F  F22  1  0.90818008  0.91069789  0.50000000  1
  F  F23  1  0.09181992  0.08930211  0.50000000  1
  F  F24  1  0.00000000  0.00000000  0.50000000  1
  F  F25  1  0.50000000  0.50000000  0.50000000  1
  F  F26  1  0.94586416  0.64800892  0.18266453  1
  F  F27  1  0.05413584  0.35199108  0.18266453  1
  F  F28  1  0.55413584  0.14800892  0.81733547  1
  F  F29  1  0.44586416  0.85199108  0.81733547  1
  F  F30  1  0.05413584  0.35199108  0.81733547  1
  F  F31  1  0.94586416  0.64800892  0.81733547  1
  F  F32  1  0.44586416  0.85199108  0.18266453  1
  F  F33  1  0.55413584  0.14800892  0.18266453  1
  F  F34  1  0.00000000  0.00000000  0.00000000  1
  F  F35  1  0.50000000  0.50000000  0.00000000  1
  F  F36  1  0.16373227  0.69986013  0.06084832  1
  F  F37  1  0.83626773  0.30013987  0.06084832  1
  F  F38  1  0.33626773  0.19986013  0.93915168  1
  F  F39  1  0.66373227  0.80013987  0.93915168  1
  F  F40  1  0.83626773  0.30013987  0.93915168  1
  F  F41  1  0.16373227  0.69986013  0.93915168  1
  F  F42  1  0.66373227  0.80013987  0.06084832  1
  F  F43  1  0.33626773  0.19986013  0.06084832  1
  F  F44  1  0.00000000  0.50000000  0.82690159  1
  F  F45  1  0.50000000  0.00000000  0.17309841  1
  F  F46  1  0.00000000  0.50000000  0.17309841  1
  F  F47  1  0.50000000  0.00000000  0.82690159  1
  Li  Li48  1  0.79347144  0.63313119  0.00000000  1
  Li  Li49  1  0.20652856  0.36686881  0.00000000  1
  Li  Li50  1  0.70652856  0.13313119  0.00000000  1
  Li  Li51  1  0.29347144  0.86686881  0.00000000  1
  Li  Li52  1  0.88794397  0.12622874  0.50000000  1
  Li  Li53  1  0.11205603  0.87377126  0.50000000  1
  Li  Li54  1  0.61205603  0.62622874  0.50000000  1
  Li  Li55  1  0.38794397  0.37377126  0.50000000  1
  Si  Si56  1  0.84371211  0.92421198  0.39594007  1
  Si  Si57  1  -0.84371211  -0.92421198  0.39594007  1
  Si  Si58  1  -0.34371211  1.42421198  -0.39594007  1
  Si  Si59  1  1.34371211  -0.42421198  -0.39594007  1
  Si  Si60  1  -0.84371211  -0.92421198  -0.39594007  1
  Si  Si61  1  0.84371211  0.92421198  -0.39594007  1
  Si  Si62  1  1.34371211  -0.42421198  0.39594007  1
  Si  Si63  1  -0.34371211  1.42421198  0.39594007  1
  Si  Si64  1  0.39649961  0.84833599  0.76960470  1
  Si  Si65  1  0.60350039  0.15166401  0.76960470  1
  Si  Si66  1  0.10350039  0.34833599  0.23039530  1
  Si  Si67  1  0.89649961  0.65166401  0.23039530  1
  Si  Si68  1  0.60350039  0.15166401  0.23039530  1
  Si  Si69  1  0.39649961  0.84833599  0.23039530  1
  Si  Si70  1  0.89649961  0.65166401  0.76960470  1
  Si  Si71  1  0.10350039  0.34833599  0.76960470  1
  Te  Te72  1  0.28821216  0.62842181  0.00000000  1
  Te  Te73  1  0.71178784  0.37157819  0.00000000  1
  Te  Te74  1  0.21178784  0.12842181  0.00000000  1
  Te  Te75  1  0.78821216  0.87157819  0.00000000  1
  Te  Te76  1  0.45143915  0.09706762  0.14252794  1
  Te  Te77  1  0.54856085  0.90293238  0.14252794  1
  Te  Te78  1  0.04856085  0.59706762  0.85747206  1
  Te  Te79  1  0.95143915  0.40293238  0.85747206  1
  Te  Te80  1  0.54856085  0.90293238  0.85747206  1
  Te  Te81  1  0.45143915  0.09706762  0.85747206  1
  Te  Te82  1  0.95143915  0.40293238  0.14252794  1
  Te  Te83  1  0.04856085  0.59706762  0.14252794  1
