# generated using pymatgen
data_LiF
_symmetry_space_group_name_H-M   'P 1'
_cell_length_a   8.50753697
_cell_length_b   6.05068688
_cell_length_c   12.82820561
_cell_angle_alpha   90.00000000
_cell_angle_beta   90.00000000
_cell_angle_gamma   90.00000000
_symmetry_Int_Tables_number   1
_chemical_formula_structural   LiF
_chemical_formula_sum   'Li24 F24'
_cell_volume   660.35038676
_cell_formula_units_Z   24
loop_
 _symmetry_equiv_pos_site_id
 _symmetry_equiv_pos_as_xyz
  1  'x, y, z'
loop_
 _atom_site_type_symbol
 _atom_site_label
 _atom_site_symmetry_multiplicity
 _atom_site_fract_x
 _atom_site_fract_y
 _atom_site_fract_z
 _atom_site_occupancy
  F  F0  1  0.52382246  0.97304089  0.35962071  1
  F  F1  1  0.97617754  0.02695911  0.85962071  1
  F  F2  1  0.47617754  0.47304089  0.64037929  1
  F  F3  1  0.02382246  0.52695911  0.14037929  1
  F  F4  1  0.47617754  0.02695911  0.64037929  1
  F  F5  1  0.02382246  0.97304089  0.14037929  1
  F  F6  1  0.52382246  0.52695911  0.35962071  1
  F  F7  1  0.97617754  0.47304089  0.85962071  1
  F  F8  1  0.25684406  0.69002067  0.43211191  1
  F  F9  1  0.24315594  0.30997933  0.93211191  1
  F  F10  1  0.74315594  0.19002067  0.56788809  1
  F  F11  1  0.75684406  0.80997933  0.06788809  1
  F  F12  1  0.74315594  0.30997933  0.56788809  1
  F  F13  1  0.75684406  0.69002067  0.06788809  1
  F  F14  1  0.25684406  0.80997933  0.43211191  1
  F  F15  1  0.24315594  0.19002067  0.93211191  1
  F  F16  1  0.22136625  0.57373958  0.03701993  1
  F  F17  1  0.27863375  0.42626042  0.53701993  1
  F  F18  1  0.77863375  0.07373958  0.96298007  1
  F  F19  1  0.72136625  0.92626042  0.46298007  1
  F  F20  1  0.77863375  0.42626042  0.96298007  1
  F  F21  1  0.72136625  0.57373958  0.46298007  1
  F  F22  1  0.22136625  0.92626042  0.03701993  1
  F  F23  1  0.27863375  0.07373958  0.53701993  1
  Li  Li24  1  0.43870535  0.05865603  0.39842781  1
  Li  Li25  1  0.06129465  -0.05865603  0.89842781  1
  Li  Li26  1  -0.43870535  0.55865603  -0.39842781  1
  Li  Li27  1  0.93870535  0.44134397  0.10157219  1
  Li  Li28  1  -0.43870535  -0.05865603  -0.39842781  1
  Li  Li29  1  0.93870535  0.05865603  0.10157219  1
  Li  Li30  1  0.43870535  0.44134397  0.39842781  1
  Li  Li31  1  0.06129465  0.55865603  0.89842781  1
  Li  Li32  1  0.00000000  0.00000000  0.50000000  1
  Li  Li33  1  0.50000000  0.00000000  -0.00000000  1
  Li  Li34  1  0.00000000  0.50000000  0.50000000  1
  Li  Li35  1  0.50000000  0.50000000  -0.00000000  1
  Li  Li36  1  0.00000000  0.00000000  0.00000000  1
  Li  Li37  1  0.50000000  0.00000000  0.50000000  1
  Li  Li38  1  0.00000000  0.50000000  0.00000000  1
  Li  Li39  1  0.50000000  0.50000000  0.50000000  1
  Li  Li40  1  0.36843390  0.41470158  0.74608158  1
  Li  Li41  1  0.13156610  0.58529842  0.24608158  1
  Li  Li42  1  0.63156610  0.91470158  0.25391842  1
  Li  Li43  1  0.86843390  0.08529842  0.75391842  1
  Li  Li44  1  0.63156610  0.58529842  0.25391842  1
  Li  Li45  1  0.86843390  0.41470158  0.75391842  1
  Li  Li46  1  0.36843390  0.08529842  0.74608158  1
  Li  Li47  1  0.13156610  0.91470158  0.24608158  1
