# generated using pymatgen
data_LiY2Cu3(Te2P)2
_symmetry_space_group_name_H-M   'P 1'
_cell_length_a   4.88722448
_cell_length_b   5.16773835
_cell_length_c   6.82028455
_cell_angle_alpha   94.44824639
_cell_angle_beta   99.72721099
_cell_angle_gamma   107.82253749
_symmetry_Int_Tables_number   1
_chemical_formula_structural   LiY2Cu3(Te2P)2
_chemical_formula_sum   'Li1 Y2 Cu3 Te4 P2'
_cell_volume   160.08706871
_cell_formula_units_Z   1
loop_
 _symmetry_equiv_pos_site_id
 _symmetry_equiv_pos_as_xyz
  1  'x, y, z'
loop_
 _atom_site_type_symbol
 _atom_site_label
 _atom_site_symmetry_multiplicity
 _atom_site_fract_x
 _atom_site_fract_y
 _atom_site_fract_z
 _atom_site_occupancy
  Te  Te0  1  0.00000000  0.00000000  0.00000000  1
  Te  Te1  1  0.50000000  0.50000000  0.50000000  1
  Te  Te2  1  0.25000000  0.25000000  0.25000000  1
  Te  Te3  1  0.75000000  0.25000000  0.00000000  1
  Cu  Cu4  1  0.25000000  0.75000000  0.50000000  1
  Cu  Cu5  1  0.43737437  0.66367861  0.68051045  1
  Cu  Cu6  1  0.24657571  0.84712565  0.70015029  1
  P  P7  1  0.45152537  0.53483700  0.26273282  1
  P  P8  1  0.46092101  0.64647882  0.29628448  1
  Li  Li9  1  0.50913016  0.70792523  0.36240891  1
  Y  Y10  1  0.70512134  0.74883979  0.40912000  1
  Y  Y11  1  0.90860460  0.06135203  0.39896455  1
