# generated using pymatgen
data_LiF
_symmetry_space_group_name_H-M   'P 1'
_cell_length_a   11.62489249
_cell_length_b   6.87313497
_cell_length_c   8.40215117
_cell_angle_alpha   90.00000000
_cell_angle_beta   90.00000000
_cell_angle_gamma   90.00000000
_symmetry_Int_Tables_number   1
_chemical_formula_structural   LiF
_chemical_formula_sum   'Li28 F28'
_cell_volume   671.32730005
_cell_formula_units_Z   28
loop_
 _symmetry_equiv_pos_site_id
 _symmetry_equiv_pos_as_xyz
  1  'x, y, z'
loop_
 _atom_site_type_symbol
 _atom_site_label
 _atom_site_symmetry_multiplicity
 _atom_site_fract_x
 _atom_site_fract_y
 _atom_site_fract_z
 _atom_site_occupancy
  F  F0  1  0.50879203  0.29980753  0.92801384  1
  F  F1  1  -0.50879203  -0.29980753  0.92801384  1
  F  F2  1  -0.00879203  0.79980753  -0.92801384  1
  F  F3  1  1.00879203  0.20019247  -0.92801384  1
  F  F4  1  -0.50879203  -0.29980753  -0.92801384  1
  F  F5  1  0.50879203  0.29980753  -0.92801384  1
  F  F6  1  1.00879203  0.20019247  0.92801384  1
  F  F7  1  -0.00879203  0.79980753  0.92801384  1
  F  F8  1  0.00000000  0.50000000  -0.00000000  1
  F  F9  1  0.50000000  0.00000000  0.00000000  1
  F  F10  1  0.82716078  0.76423117  0.64018762  1
  F  F11  1  0.17283922  0.23576883  0.64018762  1
  F  F12  1  0.67283922  0.26423117  0.35981238  1
  F  F13  1  0.32716078  0.73576883  0.35981238  1
  F  F14  1  0.17283922  0.23576883  0.35981238  1
  F  F15  1  0.82716078  0.76423117  0.35981238  1
  F  F16  1  0.32716078  0.73576883  0.64018762  1
  F  F17  1  0.67283922  0.26423117  0.64018762  1
  F  F18  1  0.00000000  0.50000000  0.50000000  1
  F  F19  1  0.50000000  0.00000000  0.50000000  1
  F  F20  1  0.87054000  0.30260985  0.94951115  1
  F  F21  1  0.12946000  0.69739015  0.94951115  1
  F  F22  1  0.62946000  0.80260985  0.05048885  1
  F  F23  1  0.37054000  0.19739015  0.05048885  1
  F  F24  1  0.12946000  0.69739015  0.05048885  1
  F  F25  1  0.87054000  0.30260985  0.05048885  1
  F  F26  1  0.37054000  0.19739015  0.94951115  1
  F  F27  1  0.62946000  0.80260985  0.94951115  1
  Li  Li28  1  0.76565586  0.57967550  0.50000000  1
  Li  Li29  1  0.23434414  0.42032450  0.50000000  1
  Li  Li30  1  0.73434414  0.07967550  0.50000000  1
  Li  Li31  1  0.26565586  0.92032450  0.50000000  1
  Li  Li32  1  0.43000992  0.77363240  0.50000000  1
  Li  Li33  1  0.56999008  0.22636760  0.50000000  1
  Li  Li34  1  0.06999008  0.27363240  0.50000000  1
  Li  Li35  1  0.93000992  0.72636760  0.50000000  1
  Li  Li36  1  0.00000000  0.00000000  0.00000000  1
  Li  Li37  1  0.50000000  0.50000000  0.00000000  1
  Li  Li38  1  0.34123172  0.04974298  0.21595706  1
  Li  Li39  1  0.65876828  0.95025702  0.21595706  1
  Li  Li40  1  0.15876828  0.54974298  0.78404294  1
  Li  Li41  1  0.84123172  0.45025702  0.78404294  1
  Li  Li42  1  0.65876828  0.95025702  0.78404294  1
  Li  Li43  1  0.34123172  0.04974298  0.78404294  1
  Li  Li44  1  0.84123172  0.45025702  0.21595706  1
  Li  Li45  1  0.15876828  0.54974298  0.21595706  1
  Li  Li46  1  0.90841047  0.96541958  0.18990281  1
  Li  Li47  1  0.09158953  0.03458042  0.18990281  1
  Li  Li48  1  0.59158953  0.46541958  0.81009719  1
  Li  Li49  1  0.40841047  0.53458042  0.81009719  1
  Li  Li50  1  0.09158953  0.03458042  0.81009719  1
  Li  Li51  1  0.90841047  0.96541958  0.81009719  1
  Li  Li52  1  0.40841047  0.53458042  0.18990281  1
  Li  Li53  1  0.59158953  0.46541958  0.18990281  1
  Li  Li54  1  0.00000000  0.00000000  0.50000000  1
  Li  Li55  1  0.50000000  0.50000000  0.50000000  1
