# generated using pymatgen
data_LiF
_symmetry_space_group_name_H-M   'P 1'
_cell_length_a   7.12615800
_cell_length_b   7.12615800
_cell_length_c   15.38246733
_cell_angle_alpha   90.00000000
_cell_angle_beta   90.00000000
_cell_angle_gamma   120.00000000
_symmetry_Int_Tables_number   1
_chemical_formula_structural   LiF
_chemical_formula_sum   'Li26 F26'
_cell_volume   676.49957505
_cell_formula_units_Z   26
loop_
 _symmetry_equiv_pos_site_id
 _symmetry_equiv_pos_as_xyz
  1  'x, y, z'
loop_
 _atom_site_type_symbol
 _atom_site_label
 _atom_site_symmetry_multiplicity
 _atom_site_fract_x
 _atom_site_fract_y
 _atom_site_fract_z
 _atom_site_occupancy
  F  F0  1  0.66666667  0.33333333  0.50000000  1
  F  F1  1  0.66666667  0.33333333  0.95585468  1
  F  F2  1  0.66666667  0.33333333  0.04414532  1
  F  F3  1  0.27564563  0.72435437  0.50000000  1
  F  F4  1  0.27564563  0.55129126  0.50000000  1
  F  F5  1  0.44870874  0.72435437  0.50000000  1
  F  F6  1  0.11751928  0.26853677  0.23527479  1
  F  F7  1  0.73146323  0.84898251  0.23527479  1
  F  F8  1  0.15101749  0.88248072  0.23527479  1
  F  F9  1  0.73146323  0.88248072  0.76472521  1
  F  F10  1  0.15101749  0.26853677  0.76472521  1
  F  F11  1  0.11751928  0.84898251  0.76472521  1
  F  F12  1  0.26833622  0.71096649  0.54994853  1
  F  F13  1  0.28903351  0.55736973  0.54994853  1
  F  F14  1  0.44263027  0.73166378  0.54994853  1
  F  F15  1  0.28903351  0.73166378  0.45005147  1
  F  F16  1  0.44263027  0.71096649  0.45005147  1
  F  F17  1  0.26833622  0.55736973  0.45005147  1
  F  F18  1  0.55642976  0.82781850  0.20816067  1
  F  F19  1  0.17218150  0.72861125  0.20816067  1
  F  F20  1  0.27138875  0.44357024  0.20816067  1
  F  F21  1  0.17218150  0.44357024  0.79183933  1
  F  F22  1  0.27138875  0.82781850  0.79183933  1
  F  F23  1  0.55642976  0.72861125  0.79183933  1
  F  F24  1  0.66666667  0.33333333  0.59126095  1
  F  F25  1  0.66666667  0.33333333  0.40873905  1
  Li  Li26  1  0.56415034  0.00623396  0.40945778  1
  Li  Li27  1  -0.00623396  0.55791638  0.40945778  1
  Li  Li28  1  -0.55791638  -0.56415034  0.40945778  1
  Li  Li29  1  -0.00623396  -0.56415034  -0.40945778  1
  Li  Li30  1  -0.55791638  0.00623396  -0.40945778  1
  Li  Li31  1  0.56415034  0.55791638  -0.40945778  1
  Li  Li32  1  0.61076727  0.96695127  0.02757629  1
  Li  Li33  1  0.03304873  0.64381599  0.02757629  1
  Li  Li34  1  0.35618401  0.38923273  0.02757629  1
  Li  Li35  1  0.03304873  0.38923273  0.97242371  1
  Li  Li36  1  0.35618401  0.96695127  0.97242371  1
  Li  Li37  1  0.61076727  0.64381599  0.97242371  1
  Li  Li38  1  0.23120317  0.55357750  0.15210638  1
  Li  Li39  1  0.44642250  0.67762567  0.15210638  1
  Li  Li40  1  0.32237433  0.76879683  0.15210638  1
  Li  Li41  1  0.44642250  0.76879683  0.84789362  1
  Li  Li42  1  0.32237433  0.55357750  0.84789362  1
  Li  Li43  1  0.23120317  0.67762567  0.84789362  1
  Li  Li44  1  0.98186072  0.16532893  0.38642555  1
  Li  Li45  1  0.83467107  0.81653179  0.38642555  1
  Li  Li46  1  0.18346821  0.01813928  0.38642555  1
  Li  Li47  1  0.83467107  0.01813928  0.61357445  1
  Li  Li48  1  0.18346821  0.16532893  0.61357445  1
  Li  Li49  1  0.98186072  0.81653179  0.61357445  1
  Li  Li50  1  0.66666667  0.33333333  0.26770818  1
  Li  Li51  1  0.66666667  0.33333333  0.73229182  1
