# generated using pymatgen
data_LiF
_symmetry_space_group_name_H-M   'P 1'
_cell_length_a   8.75992027
_cell_length_b   8.75992027
_cell_length_c   8.06025842
_cell_angle_alpha   90.00000000
_cell_angle_beta   90.00000000
_cell_angle_gamma   120.00000000
_symmetry_Int_Tables_number   1
_chemical_formula_structural   LiF
_chemical_formula_sum   'Li19 F19'
_cell_volume   535.64851424
_cell_formula_units_Z   19
loop_
 _symmetry_equiv_pos_site_id
 _symmetry_equiv_pos_as_xyz
  1  'x, y, z'
loop_
 _atom_site_type_symbol
 _atom_site_label
 _atom_site_symmetry_multiplicity
 _atom_site_fract_x
 _atom_site_fract_y
 _atom_site_fract_z
 _atom_site_occupancy
  F  F0  1  0.53701934  0.75545721  0.72499450  1
  F  F1  1  0.24454279  0.78156213  0.72499450  1
  F  F2  1  0.21843787  0.46298066  0.72499450  1
  F  F3  1  0.24454279  0.46298066  0.27500550  1
  F  F4  1  0.21843787  0.75545721  0.27500550  1
  F  F5  1  0.53701934  0.78156213  0.27500550  1
  F  F6  1  0.72626182  0.48420162  0.65173971  1
  F  F7  1  0.51579838  0.24206020  0.65173971  1
  F  F8  1  0.75793980  0.27373818  0.65173971  1
  F  F9  1  0.51579838  0.27373818  0.34826029  1
  F  F10  1  0.75793980  0.48420162  0.34826029  1
  F  F11  1  0.72626182  0.24206020  0.34826029  1
  F  F12  1  0.66666667  0.33333333  -0.00000000  1
  F  F13  1  0.33333333  0.66666667  0.00000000  1
  F  F14  1  0.54369693  0.45630307  -0.00000000  1
  F  F15  1  0.54369693  0.08739386  -0.00000000  1
  F  F16  1  0.91260614  0.45630307  0.00000000  1
  F  F17  1  0.33333333  0.66666667  0.08541910  1
  F  F18  1  0.33333333  0.66666667  0.91458090  1
  Li  Li19  1  0.11823877  0.88176123  0.00000000  1
  Li  Li20  1  0.11823877  0.23647755  -0.00000000  1
  Li  Li21  1  0.76352245  0.88176123  0.00000000  1
  Li  Li22  1  0.00000000  0.00000000  0.00000000  1
  Li  Li23  1  0.33333333  0.66666667  0.50000000  1
  Li  Li24  1  0.09745915  0.79863268  0.37611386  1
  Li  Li25  1  -0.79863268  -0.70117353  0.37611386  1
  Li  Li26  1  0.70117353  -0.09745915  0.37611386  1
  Li  Li27  1  -0.79863268  -0.09745915  -0.37611386  1
  Li  Li28  1  0.70117353  0.79863268  -0.37611386  1
  Li  Li29  1  0.09745915  -0.70117353  -0.37611386  1
  Li  Li30  1  0.52193207  0.26342362  0.90268922  1
  Li  Li31  1  0.73657638  0.25850846  0.90268922  1
  Li  Li32  1  0.74149154  0.47806793  0.90268922  1
  Li  Li33  1  0.73657638  0.47806793  0.09731078  1
  Li  Li34  1  0.74149154  0.26342362  0.09731078  1
  Li  Li35  1  0.52193207  0.25850846  0.09731078  1
  Li  Li36  1  0.33333333  0.66666667  0.23395901  1
  Li  Li37  1  0.33333333  0.66666667  0.76604099  1
