# generated using pymatgen
data_LiF
_symmetry_space_group_name_H-M   'P 1'
_cell_length_a   8.35988076
_cell_length_b   7.57270758
_cell_length_c   6.53583091
_cell_angle_alpha   90.00000000
_cell_angle_beta   90.00000000
_cell_angle_gamma   90.00000000
_symmetry_Int_Tables_number   1
_chemical_formula_structural   LiF
_chemical_formula_sum   'Li16 F16'
_cell_volume   413.76340520
_cell_formula_units_Z   16
loop_
 _symmetry_equiv_pos_site_id
 _symmetry_equiv_pos_as_xyz
  1  'x, y, z'
loop_
 _atom_site_type_symbol
 _atom_site_label
 _atom_site_symmetry_multiplicity
 _atom_site_fract_x
 _atom_site_fract_y
 _atom_site_fract_z
 _atom_site_occupancy
  F  F0  1  0.63987187  0.70778853  0.50000000  1
  F  F1  1  0.36012813  0.29221147  0.50000000  1
  F  F2  1  0.86012813  0.20778853  0.50000000  1
  F  F3  1  0.13987187  0.79221147  0.50000000  1
  F  F4  1  0.00000000  0.00000000  0.50000000  1
  F  F5  1  0.50000000  0.50000000  0.50000000  1
  F  F6  1  0.04324956  0.48548436  0.19627950  1
  F  F7  1  -0.04324956  -0.48548436  0.19627950  1
  F  F8  1  0.45675044  0.98548436  -0.19627950  1
  F  F9  1  0.54324956  0.01451564  -0.19627950  1
  F  F10  1  -0.04324956  -0.48548436  -0.19627950  1
  F  F11  1  0.04324956  0.48548436  -0.19627950  1
  F  F12  1  0.54324956  0.01451564  0.19627950  1
  F  F13  1  0.45675044  0.98548436  0.19627950  1
  F  F14  1  0.00000000  0.50000000  0.50000000  1
  F  F15  1  0.50000000  0.00000000  0.50000000  1
  Li  Li16  1  0.00000000  0.00000000  0.00000000  1
  Li  Li17  1  0.50000000  0.50000000  -0.00000000  1
  Li  Li18  1  0.23895508  0.09827916  0.71560455  1
  Li  Li19  1  0.76104492  0.90172084  0.71560455  1
  Li  Li20  1  0.26104492  0.59827916  0.28439545  1
  Li  Li21  1  0.73895508  0.40172084  0.28439545  1
  Li  Li22  1  0.76104492  0.90172084  0.28439545  1
  Li  Li23  1  0.23895508  0.09827916  0.28439545  1
  Li  Li24  1  0.73895508  0.40172084  0.71560455  1
  Li  Li25  1  0.26104492  0.59827916  0.71560455  1
  Li  Li26  1  0.00000000  0.00000000  0.33132357  1
  Li  Li27  1  0.50000000  0.50000000  0.66867643  1
  Li  Li28  1  0.00000000  0.00000000  0.66867643  1
  Li  Li29  1  0.50000000  0.50000000  0.33132357  1
  Li  Li30  1  0.00000000  0.50000000  0.00000000  1
  Li  Li31  1  0.50000000  0.00000000  0.00000000  1
