# generated using pymatgen
data_LiF
_symmetry_space_group_name_H-M   'P 1'
_cell_length_a   13.83218529
_cell_length_b   9.78272680
_cell_length_c   7.29547854
_cell_angle_alpha   90.00000000
_cell_angle_beta   90.00000000
_cell_angle_gamma   90.00000000
_symmetry_Int_Tables_number   1
_chemical_formula_structural   LiF
_chemical_formula_sum   'Li42 F42'
_cell_volume   987.19854827
_cell_formula_units_Z   42
loop_
 _symmetry_equiv_pos_site_id
 _symmetry_equiv_pos_as_xyz
  1  'x, y, z'
loop_
 _atom_site_type_symbol
 _atom_site_label
 _atom_site_symmetry_multiplicity
 _atom_site_fract_x
 _atom_site_fract_y
 _atom_site_fract_z
 _atom_site_occupancy
  F  F0  1  0.49660104  0.82759503  0.33148745  1
  F  F1  1  0.50339896  0.17240497  0.33148745  1
  F  F2  1  0.00339896  0.32759503  0.66851255  1
  F  F3  1  0.99660104  0.67240497  0.66851255  1
  F  F4  1  0.50339896  0.17240497  0.66851255  1
  F  F5  1  0.49660104  0.82759503  0.66851255  1
  F  F6  1  0.99660104  0.67240497  0.33148745  1
  F  F7  1  0.00339896  0.32759503  0.33148745  1
  F  F8  1  0.28792674  0.40597472  0.61060551  1
  F  F9  1  0.71207326  0.59402528  0.61060551  1
  F  F10  1  0.21207326  0.90597472  0.38939449  1
  F  F11  1  0.78792674  0.09402528  0.38939449  1
  F  F12  1  0.71207326  0.59402528  0.38939449  1
  F  F13  1  0.28792674  0.40597472  0.38939449  1
  F  F14  1  0.78792674  0.09402528  0.61060551  1
  F  F15  1  0.21207326  0.90597472  0.61060551  1
  F  F16  1  0.77547064  0.31144410  0.50000000  1
  F  F17  1  0.22452936  0.68855590  0.50000000  1
  F  F18  1  0.72452936  0.81144410  0.50000000  1
  F  F19  1  0.27547064  0.18855590  0.50000000  1
  F  F20  1  0.20118979  0.12348167  0.94503234  1
  F  F21  1  0.79881021  0.87651833  0.94503234  1
  F  F22  1  0.29881021  0.62348167  0.05496766  1
  F  F23  1  0.70118979  0.37651833  0.05496766  1
  F  F24  1  0.79881021  0.87651833  0.05496766  1
  F  F25  1  0.20118979  0.12348167  0.05496766  1
  F  F26  1  0.70118979  0.37651833  0.94503234  1
  F  F27  1  0.29881021  0.62348167  0.94503234  1
  F  F28  1  0.84779795  0.35958093  0.31110121  1
  F  F29  1  0.15220205  0.64041907  0.31110121  1
  F  F30  1  0.65220205  0.85958093  0.68889879  1
  F  F31  1  0.34779795  0.14041907  0.68889879  1
  F  F32  1  0.15220205  0.64041907  0.68889879  1
  F  F33  1  0.84779795  0.35958093  0.68889879  1
  F  F34  1  0.34779795  0.14041907  0.31110121  1
  F  F35  1  0.65220205  0.85958093  0.31110121  1
  F  F36  1  0.71993331  0.07682103  0.00000000  1
  F  F37  1  0.28006669  0.92317897  0.00000000  1
  F  F38  1  0.78006669  0.57682103  0.00000000  1
  F  F39  1  0.21993331  0.42317897  -0.00000000  1
  F  F40  1  0.00000000  0.00000000  0.00000000  1
  F  F41  1  0.50000000  0.50000000  0.00000000  1
  Li  Li42  1  0.85542561  0.16340218  0.50000000  1
  Li  Li43  1  0.14457439  0.83659782  0.50000000  1
  Li  Li44  1  0.64457439  0.66340218  0.50000000  1
  Li  Li45  1  0.35542561  0.33659782  0.50000000  1
  Li  Li46  1  0.00000000  0.00000000  0.50000000  1
  Li  Li47  1  0.50000000  0.50000000  0.50000000  1
  Li  Li48  1  0.71460304  0.37506526  0.50000000  1
  Li  Li49  1  0.28539696  0.62493474  0.50000000  1
  Li  Li50  1  0.78539696  0.87506526  0.50000000  1
  Li  Li51  1  0.21460304  0.12493474  0.50000000  1
  Li  Li52  1  0.00000000  0.50000000  0.50000000  1
  Li  Li53  1  0.50000000  0.00000000  0.50000000  1
  Li  Li54  1  0.28166981  0.08767903  0.69812423  1
  Li  Li55  1  -0.28166981  -0.08767903  0.69812423  1
  Li  Li56  1  0.21833019  0.58767903  -0.69812423  1
  Li  Li57  1  0.78166981  0.41232097  -0.69812423  1
  Li  Li58  1  -0.28166981  -0.08767903  -0.69812423  1
  Li  Li59  1  0.28166981  0.08767903  -0.69812423  1
  Li  Li60  1  0.78166981  0.41232097  0.69812423  1
  Li  Li61  1  0.21833019  0.58767903  0.69812423  1
  Li  Li62  1  0.91224687  0.76674338  0.00000000  1
  Li  Li63  1  0.08775313  0.23325662  0.00000000  1
  Li  Li64  1  0.58775313  0.26674338  -0.00000000  1
  Li  Li65  1  0.41224687  0.73325662  0.00000000  1
  Li  Li66  1  0.61173777  0.55268628  0.80740360  1
  Li  Li67  1  0.38826223  0.44731372  0.80740360  1
  Li  Li68  1  0.88826223  0.05268628  0.19259640  1
  Li  Li69  1  0.11173777  0.94731372  0.19259640  1
  Li  Li70  1  0.38826223  0.44731372  0.19259640  1
  Li  Li71  1  0.61173777  0.55268628  0.19259640  1
  Li  Li72  1  0.11173777  0.94731372  0.80740360  1
  Li  Li73  1  0.88826223  0.05268628  0.80740360  1
  Li  Li74  1  0.71594482  0.52915772  0.11995741  1
  Li  Li75  1  0.28405518  0.47084228  0.11995741  1
  Li  Li76  1  0.78405518  0.02915772  0.88004259  1
  Li  Li77  1  0.21594482  0.97084228  0.88004259  1
  Li  Li78  1  0.28405518  0.47084228  0.88004259  1
  Li  Li79  1  0.71594482  0.52915772  0.88004259  1
  Li  Li80  1  0.21594482  0.97084228  0.11995741  1
  Li  Li81  1  0.78405518  0.02915772  0.11995741  1
  Li  Li82  1  0.00000000  0.50000000  0.00000000  1
  Li  Li83  1  0.50000000  0.00000000  0.00000000  1
