# generated using pymatgen
data_LiF
_symmetry_space_group_name_H-M   'P 1'
_cell_length_a   13.61777661
_cell_length_b   13.61777661
_cell_length_c   7.53817048
_cell_angle_alpha   90.00000000
_cell_angle_beta   90.00000000
_cell_angle_gamma   120.00000000
_symmetry_Int_Tables_number   1
_chemical_formula_structural   LiF
_chemical_formula_sum   'Li44 F44'
_cell_volume   1210.62321561
_cell_formula_units_Z   44
loop_
 _symmetry_equiv_pos_site_id
 _symmetry_equiv_pos_as_xyz
  1  'x, y, z'
loop_
 _atom_site_type_symbol
 _atom_site_label
 _atom_site_symmetry_multiplicity
 _atom_site_fract_x
 _atom_site_fract_y
 _atom_site_fract_z
 _atom_site_occupancy
  F  F0  1  0.22289434  0.30712321  0.98530117  1
  F  F1  1  0.69287679  0.91577114  0.98530117  1
  F  F2  1  0.08422886  0.77710566  0.98530117  1
  F  F3  1  0.69287679  0.77710566  0.01469883  1
  F  F4  1  0.08422886  0.30712321  0.01469883  1
  F  F5  1  0.22289434  0.91577114  0.01469883  1
  F  F6  1  0.08867946  0.01589036  0.06600142  1
  F  F7  1  0.98410964  0.07278911  0.06600142  1
  F  F8  1  0.92721089  0.91132054  0.06600142  1
  F  F9  1  0.98410964  0.91132054  0.93399858  1
  F  F10  1  0.92721089  0.01589036  0.93399858  1
  F  F11  1  0.08867946  0.07278911  0.93399858  1
  F  F12  1  0.72434803  0.24103029  0.83438138  1
  F  F13  1  0.75896971  0.48331775  0.83438138  1
  F  F14  1  0.51668225  0.27565197  0.83438138  1
  F  F15  1  0.75896971  0.27565197  0.16561862  1
  F  F16  1  0.51668225  0.24103029  0.16561862  1
  F  F17  1  0.72434803  0.48331775  0.16561862  1
  F  F18  1  0.28336584  0.35525024  0.06274722  1
  F  F19  1  0.64474976  0.92811559  0.06274722  1
  F  F20  1  0.07188441  0.71663416  0.06274722  1
  F  F21  1  0.64474976  0.71663416  0.93725278  1
  F  F22  1  0.07188441  0.35525024  0.93725278  1
  F  F23  1  0.28336584  0.92811559  0.93725278  1
  F  F24  1  0.58022685  0.04818804  0.69317614  1
  F  F25  1  0.95181196  0.53203881  0.69317614  1
  F  F26  1  0.46796119  0.41977315  0.69317614  1
  F  F27  1  0.95181196  0.41977315  0.30682386  1
  F  F28  1  0.46796119  0.04818804  0.30682386  1
  F  F29  1  0.58022685  0.53203881  0.30682386  1
  F  F30  1  0.01806323  0.50063024  0.46137882  1
  F  F31  1  0.49936976  0.51743298  0.46137882  1
  F  F32  1  0.48256702  0.98193677  0.46137882  1
  F  F33  1  0.49936976  0.98193677  0.53862118  1
  F  F34  1  0.48256702  0.50063024  0.53862118  1
  F  F35  1  0.01806323  0.51743298  0.53862118  1
  F  F36  1  0.63967417  0.10373332  0.70269634  1
  F  F37  1  0.89626668  0.53594085  0.70269634  1
  F  F38  1  0.46405915  0.36032583  0.70269634  1
  F  F39  1  0.89626668  0.36032583  0.29730366  1
  F  F40  1  0.46405915  0.10373332  0.29730366  1
  F  F41  1  0.63967417  0.53594085  0.29730366  1
  F  F42  1  0.66666667  0.33333333  0.27480660  1
  F  F43  1  0.66666667  0.33333333  0.72519340  1
  Li  Li44  1  0.12807553  0.87192447  0.00000000  1
  Li  Li45  1  0.12807553  0.25615106  0.00000000  1
  Li  Li46  1  0.74384894  0.87192447  0.00000000  1
  Li  Li47  1  0.92346719  0.70563731  0.26554432  1
  Li  Li48  1  -0.70563731  0.21782988  0.26554432  1
  Li  Li49  1  -0.21782988  -0.92346719  0.26554432  1
  Li  Li50  1  -0.70563731  -0.92346719  -0.26554432  1
  Li  Li51  1  -0.21782988  0.70563731  -0.26554432  1
  Li  Li52  1  0.92346719  0.21782988  -0.26554432  1
  Li  Li53  1  0.40361607  0.49318416  0.42636772  1
  Li  Li54  1  0.50681584  0.91043191  0.42636772  1
  Li  Li55  1  0.08956809  0.59638393  0.42636772  1
  Li  Li56  1  0.50681584  0.59638393  0.57363228  1
  Li  Li57  1  0.08956809  0.49318416  0.57363228  1
  Li  Li58  1  0.40361607  0.91043191  0.57363228  1
  Li  Li59  1  0.66666667  0.33333333  0.50000000  1
  Li  Li60  1  0.66666667  0.33333333  0.00000000  1
  Li  Li61  1  0.82173431  0.11378710  0.08478669  1
  Li  Li62  1  0.88621290  0.70794721  0.08478669  1
  Li  Li63  1  0.29205279  0.17826569  0.08478669  1
  Li  Li64  1  0.88621290  0.17826569  0.91521331  1
  Li  Li65  1  0.29205279  0.11378710  0.91521331  1
  Li  Li66  1  0.82173431  0.70794721  0.91521331  1
  Li  Li67  1  0.33333333  0.66666667  0.00000000  1
  Li  Li68  1  0.72630620  0.82867352  0.65341690  1
  Li  Li69  1  0.17132648  0.89763267  0.65341690  1
  Li  Li70  1  0.10236733  0.27369380  0.65341690  1
  Li  Li71  1  0.17132648  0.27369380  0.34658310  1
  Li  Li72  1  0.10236733  0.82867352  0.34658310  1
  Li  Li73  1  0.72630620  0.89763267  0.34658310  1
  Li  Li74  1  0.05441651  0.31691217  0.39118068  1
  Li  Li75  1  0.68308783  0.73750434  0.39118068  1
  Li  Li76  1  0.26249566  0.94558349  0.39118068  1
  Li  Li77  1  0.68308783  0.94558349  0.60881932  1
  Li  Li78  1  0.26249566  0.31691217  0.60881932  1
  Li  Li79  1  0.05441651  0.73750434  0.60881932  1
  Li  Li80  1  0.57058872  0.25312409  0.26966172  1
  Li  Li81  1  0.74687591  0.31746463  0.26966172  1
  Li  Li82  1  0.68253537  0.42941128  0.26966172  1
  Li  Li83  1  0.74687591  0.42941128  0.73033828  1
  Li  Li84  1  0.68253537  0.25312409  0.73033828  1
  Li  Li85  1  0.57058872  0.31746463  0.73033828  1
  Li  Li86  1  0.00000000  0.00000000  0.50000000  1
  Li  Li87  1  0.33333333  0.66666667  0.50000000  1
