# generated using pymatgen
data_Li2Y2As2P4Se
_symmetry_space_group_name_H-M   'P 1'
_cell_length_a   5.40548968
_cell_length_b   5.54468503
_cell_length_c   7.43272517
_cell_angle_alpha   94.07435639
_cell_angle_beta   98.87310117
_cell_angle_gamma   106.36507029
_symmetry_Int_Tables_number   1
_chemical_formula_structural   Li2Y2As2P4Se
_chemical_formula_sum   'Li2 Y2 As2 P4 Se1'
_cell_volume   209.64191856
_cell_formula_units_Z   1
loop_
 _symmetry_equiv_pos_site_id
 _symmetry_equiv_pos_as_xyz
  1  'x, y, z'
loop_
 _atom_site_type_symbol
 _atom_site_label
 _atom_site_symmetry_multiplicity
 _atom_site_fract_x
 _atom_site_fract_y
 _atom_site_fract_z
 _atom_site_occupancy
  Se  Se0  1  0.00000000  0.00000000  0.00000000  1
  Y  Y1  1  0.50000000  0.50000000  0.50000000  1
  Y  Y2  1  0.25000000  0.25000000  0.25000000  1
  P  P3  1  0.75000000  0.25000000  0.00000000  1
  P  P4  1  0.25000000  0.75000000  0.50000000  1
  P  P5  1  0.28806551  0.23544801  0.67583739  1
  P  P6  1  0.67740035  0.54805925  0.93145867  1
  As  As7  1  0.02979734  0.91192501  0.44762236  1
  As  As8  1  0.63460635  0.40418044  0.27694054  1
  Li  Li9  1  0.22180101  0.97710500  0.48332748  1
  Li  Li10  1  0.40775213  0.04362111  0.07501681  1
