# generated using pymatgen
data_LiF
_symmetry_space_group_name_H-M   'P 1'
_cell_length_a   8.51841285
_cell_length_b   12.74145337
_cell_length_c   13.97397395
_cell_angle_alpha   90.00000000
_cell_angle_beta   90.00000000
_cell_angle_gamma   90.00000000
_symmetry_Int_Tables_number   1
_chemical_formula_structural   LiF
_chemical_formula_sum   'Li54 F54'
_cell_volume   1516.69265343
_cell_formula_units_Z   54
loop_
 _symmetry_equiv_pos_site_id
 _symmetry_equiv_pos_as_xyz
  1  'x, y, z'
loop_
 _atom_site_type_symbol
 _atom_site_label
 _atom_site_symmetry_multiplicity
 _atom_site_fract_x
 _atom_site_fract_y
 _atom_site_fract_z
 _atom_site_occupancy
  F  F0  1  0.26356534  0.05371988  0.00000000  1
  F  F1  1  0.73643466  0.94628012  0.00000000  1
  F  F2  1  0.23643466  0.55371988  0.00000000  1
  F  F3  1  0.76356534  0.44628012  0.00000000  1
  F  F4  1  0.91721157  0.11152534  0.30596635  1
  F  F5  1  0.08278843  0.88847466  0.30596635  1
  F  F6  1  0.58278843  0.61152534  0.69403365  1
  F  F7  1  0.41721157  0.38847466  0.69403365  1
  F  F8  1  0.08278843  0.88847466  0.69403365  1
  F  F9  1  0.91721157  0.11152534  0.69403365  1
  F  F10  1  0.41721157  0.38847466  0.30596635  1
  F  F11  1  0.58278843  0.61152534  0.30596635  1
  F  F12  1  0.27318126  0.11667035  0.00000000  1
  F  F13  1  0.72681874  0.88332965  0.00000000  1
  F  F14  1  0.22681874  0.61667035  0.00000000  1
  F  F15  1  0.77318126  0.38332965  0.00000000  1
  F  F16  1  0.00000000  0.50000000  0.73565714  1
  F  F17  1  0.50000000  0.00000000  0.26434286  1
  F  F18  1  0.00000000  0.50000000  0.26434286  1
  F  F19  1  0.50000000  0.00000000  0.73565714  1
  F  F20  1  0.00000000  0.50000000  0.34245541  1
  F  F21  1  0.50000000  0.00000000  0.65754459  1
  F  F22  1  0.00000000  0.50000000  0.65754459  1
  F  F23  1  0.50000000  0.00000000  0.34245541  1
  F  F24  1  0.81201149  0.76238191  0.59621291  1
  F  F25  1  0.18798851  0.23761809  0.59621291  1
  F  F26  1  0.68798851  0.26238191  0.40378709  1
  F  F27  1  0.31201149  0.73761809  0.40378709  1
  F  F28  1  0.18798851  0.23761809  0.40378709  1
  F  F29  1  0.81201149  0.76238191  0.40378709  1
  F  F30  1  0.31201149  0.73761809  0.59621291  1
  F  F31  1  0.68798851  0.26238191  0.59621291  1
  F  F32  1  0.00000000  0.50000000  0.50000000  1
  F  F33  1  0.50000000  0.00000000  0.50000000  1
  F  F34  1  0.91275582  0.84404914  0.17716638  1
  F  F35  1  0.08724418  0.15595086  0.17716638  1
  F  F36  1  0.58724418  0.34404914  0.82283362  1
  F  F37  1  0.41275582  0.65595086  0.82283362  1
  F  F38  1  0.08724418  0.15595086  0.82283362  1
  F  F39  1  0.91275582  0.84404914  0.82283362  1
  F  F40  1  0.41275582  0.65595086  0.17716638  1
  F  F41  1  0.58724418  0.34404914  0.17716638  1
  F  F42  1  0.30841603  0.82725162  0.58799189  1
  F  F43  1  0.69158397  0.17274838  0.58799189  1
  F  F44  1  0.19158397  0.32725162  0.41200811  1
  F  F45  1  0.80841603  0.67274838  0.41200811  1
  F  F46  1  0.69158397  0.17274838  0.41200811  1
  F  F47  1  0.30841603  0.82725162  0.41200811  1
  F  F48  1  0.80841603  0.67274838  0.58799189  1
  F  F49  1  0.19158397  0.32725162  0.58799189  1
  F  F50  1  0.00000000  0.50000000  0.14549835  1
  F  F51  1  0.50000000  0.00000000  0.85450165  1
  F  F52  1  0.00000000  0.50000000  0.85450165  1
  F  F53  1  0.50000000  0.00000000  0.14549835  1
  Li  Li54  1  0.53866512  0.78757021  0.33325257  1
  Li  Li55  1  -0.53866512  -0.78757021  0.33325257  1
  Li  Li56  1  -0.03866512  1.28757021  -0.33325257  1
  Li  Li57  1  1.03866512  -0.28757021  -0.33325257  1
  Li  Li58  1  -0.53866512  -0.78757021  -0.33325257  1
  Li  Li59  1  0.53866512  0.78757021  -0.33325257  1
  Li  Li60  1  1.03866512  -0.28757021  0.33325257  1
  Li  Li61  1  -0.03866512  1.28757021  0.33325257  1
  Li  Li62  1  0.00000000  0.00000000  0.43344300  1
  Li  Li63  1  0.50000000  0.50000000  0.56655700  1
  Li  Li64  1  0.00000000  0.00000000  0.56655700  1
  Li  Li65  1  0.50000000  0.50000000  0.43344300  1
  Li  Li66  1  0.62139459  0.24810117  0.18987085  1
  Li  Li67  1  0.37860541  0.75189883  0.18987085  1
  Li  Li68  1  0.87860541  0.74810117  0.81012915  1
  Li  Li69  1  0.12139459  0.25189883  0.81012915  1
  Li  Li70  1  0.37860541  0.75189883  0.81012915  1
  Li  Li71  1  0.62139459  0.24810117  0.81012915  1
  Li  Li72  1  0.12139459  0.25189883  0.18987085  1
  Li  Li73  1  0.87860541  0.74810117  0.18987085  1
  Li  Li74  1  0.16192495  0.31282493  0.32246959  1
  Li  Li75  1  0.83807505  0.68717507  0.32246959  1
  Li  Li76  1  0.33807505  0.81282493  0.67753041  1
  Li  Li77  1  0.66192495  0.18717507  0.67753041  1
  Li  Li78  1  0.83807505  0.68717507  0.67753041  1
  Li  Li79  1  0.16192495  0.31282493  0.67753041  1
  Li  Li80  1  0.66192495  0.18717507  0.32246959  1
  Li  Li81  1  0.33807505  0.81282493  0.32246959  1
  Li  Li82  1  0.64210849  0.69681470  0.29634479  1
  Li  Li83  1  0.35789151  0.30318530  0.29634479  1
  Li  Li84  1  0.85789151  0.19681470  0.70365521  1
  Li  Li85  1  0.14210849  0.80318530  0.70365521  1
  Li  Li86  1  0.35789151  0.30318530  0.70365521  1
  Li  Li87  1  0.64210849  0.69681470  0.70365521  1
  Li  Li88  1  0.14210849  0.80318530  0.29634479  1
  Li  Li89  1  0.85789151  0.19681470  0.29634479  1
  Li  Li90  1  0.38313314  0.09419067  0.59130578  1
  Li  Li91  1  0.61686686  0.90580933  0.59130578  1
  Li  Li92  1  0.11686686  0.59419067  0.40869422  1
  Li  Li93  1  0.88313314  0.40580933  0.40869422  1
  Li  Li94  1  0.61686686  0.90580933  0.40869422  1
  Li  Li95  1  0.38313314  0.09419067  0.40869422  1
  Li  Li96  1  0.88313314  0.40580933  0.59130578  1
  Li  Li97  1  0.11686686  0.59419067  0.59130578  1
  Li  Li98  1  0.64911216  0.87206335  0.68101136  1
  Li  Li99  1  0.35088784  0.12793665  0.68101136  1
  Li  Li100  1  0.85088784  0.37206335  0.31898864  1
  Li  Li101  1  0.14911216  0.62793665  0.31898864  1
  Li  Li102  1  0.35088784  0.12793665  0.31898864  1
  Li  Li103  1  0.64911216  0.87206335  0.31898864  1
  Li  Li104  1  0.14911216  0.62793665  0.68101136  1
  Li  Li105  1  0.85088784  0.37206335  0.68101136  1
  Li  Li106  1  0.00000000  0.50000000  0.00000000  1
  Li  Li107  1  0.50000000  0.00000000  0.00000000  1
