# generated using pymatgen
data_LiYAs2P
_symmetry_space_group_name_H-M   'P 1'
_cell_length_a   5.10795504
_cell_length_b   5.17714561
_cell_length_c   6.87807384
_cell_angle_alpha   94.23049169
_cell_angle_beta   99.36679150
_cell_angle_gamma   107.17773952
_symmetry_Int_Tables_number   1
_chemical_formula_structural   LiYAs2P
_chemical_formula_sum   'Li2 Y2 As4 P2'
_cell_volume   170.01951481
_cell_formula_units_Z   2
loop_
 _symmetry_equiv_pos_site_id
 _symmetry_equiv_pos_as_xyz
  1  'x, y, z'
loop_
 _atom_site_type_symbol
 _atom_site_label
 _atom_site_symmetry_multiplicity
 _atom_site_fract_x
 _atom_site_fract_y
 _atom_site_fract_z
 _atom_site_occupancy
  P  P0  1  0.12500000  0.12500000  0.12500000  1
  P  P1  1  0.50000000  0.50000000  0.50000000  1
  As  As2  1  0.25000000  0.25000000  0.25000000  1
  As  As3  1  0.75000000  0.75000000  0.75000000  1
  As  As4  1  0.45850955  0.86038242  0.39805656  1
  As  As5  1  0.54474181  0.39900512  0.65444938  1
  Li  Li6  1  0.24024704  0.93210578  0.73305856  1
  Li  Li7  1  0.16875524  0.31340227  0.83199201  1
  Y  Y8  1  0.98984855  0.84969923  0.43756156  1
  Y  Y9  1  0.01716214  0.97105578  0.48054640  1
