# generated using pymatgen
data_LiF
_symmetry_space_group_name_H-M   'P 1'
_cell_length_a   4.83336994
_cell_length_b   4.83336994
_cell_length_c   20.29644840
_cell_angle_alpha   90.00000000
_cell_angle_beta   90.00000000
_cell_angle_gamma   120.00000000
_symmetry_Int_Tables_number   1
_chemical_formula_structural   LiF
_chemical_formula_sum   'Li22 F22'
_cell_volume   410.63007411
_cell_formula_units_Z   22
loop_
 _symmetry_equiv_pos_site_id
 _symmetry_equiv_pos_as_xyz
  1  'x, y, z'
loop_
 _atom_site_type_symbol
 _atom_site_label
 _atom_site_symmetry_multiplicity
 _atom_site_fract_x
 _atom_site_fract_y
 _atom_site_fract_z
 _atom_site_occupancy
  F  F0  1  0.33333333  0.66666667  0.00000000  1
  F  F1  1  0.95970046  0.23018565  0.68257429  1
  F  F2  1  0.76981435  0.72951480  0.68257429  1
  F  F3  1  0.27048520  0.04029954  0.68257429  1
  F  F4  1  0.76981435  0.04029954  0.31742571  1
  F  F5  1  0.27048520  0.23018565  0.31742571  1
  F  F6  1  0.95970046  0.72951480  0.31742571  1
  F  F7  1  0.93133445  0.91407224  0.61321142  1
  F  F8  1  0.08592776  0.01726222  0.61321142  1
  F  F9  1  0.98273778  0.06866555  0.61321142  1
  F  F10  1  0.08592776  0.06866555  0.38678858  1
  F  F11  1  0.98273778  0.91407224  0.38678858  1
  F  F12  1  0.93133445  0.01726222  0.38678858  1
  F  F13  1  0.05645670  0.27213291  0.78973765  1
  F  F14  1  0.72786709  0.78432379  0.78973765  1
  F  F15  1  0.21567621  0.94354330  0.78973765  1
  F  F16  1  0.72786709  0.94354330  0.21026235  1
  F  F17  1  0.21567621  0.27213291  0.21026235  1
  F  F18  1  0.05645670  0.78432379  0.21026235  1
  F  F19  1  0.53750080  0.46249920  0.50000000  1
  F  F20  1  0.53750080  0.07500161  0.50000000  1
  F  F21  1  0.92499839  0.46249920  0.50000000  1
  Li  Li22  1  0.00000000  0.00000000  0.50000000  1
  Li  Li23  1  0.66666667  0.33333333  0.53715350  1
  Li  Li24  1  0.66666667  0.33333333  0.46284650  1
  Li  Li25  1  0.88623468  0.32132553  0.13996701  1
  Li  Li26  1  -0.32132553  0.56490915  0.13996701  1
  Li  Li27  1  -0.56490915  -0.88623468  0.13996701  1
  Li  Li28  1  -0.32132553  -0.88623468  -0.13996701  1
  Li  Li29  1  -0.56490915  0.32132553  -0.13996701  1
  Li  Li30  1  0.88623468  0.56490915  -0.13996701  1
  Li  Li31  1  0.48365859  0.60345641  0.17801990  1
  Li  Li32  1  0.39654359  0.88020219  0.17801990  1
  Li  Li33  1  0.11979781  0.51634141  0.17801990  1
  Li  Li34  1  0.39654359  0.51634141  0.82198010  1
  Li  Li35  1  0.11979781  0.60345641  0.82198010  1
  Li  Li36  1  0.48365859  0.88020219  0.82198010  1
  Li  Li37  1  0.88787341  0.60103791  0.57955832  1
  Li  Li38  1  0.39896209  0.28683550  0.57955832  1
  Li  Li39  1  0.71316450  0.11212659  0.57955832  1
  Li  Li40  1  0.39896209  0.11212659  0.42044168  1
  Li  Li41  1  0.71316450  0.60103791  0.42044168  1
  Li  Li42  1  0.88787341  0.28683550  0.42044168  1
  Li  Li43  1  0.00000000  0.00000000  0.00000000  1
