# generated using pymatgen
data_Li2Si4Te3F12
_symmetry_space_group_name_H-M   'P 1'
_cell_length_a   8.36635291
_cell_length_b   8.36635291
_cell_length_c   14.46055019
_cell_angle_alpha   90.00000000
_cell_angle_beta   90.00000000
_cell_angle_gamma   90.00000000
_symmetry_Int_Tables_number   1
_chemical_formula_structural   Li2Si4Te3F12
_chemical_formula_sum   'Li8 Si16 Te12 F48'
_cell_volume   1012.17866247
_cell_formula_units_Z   4
loop_
 _symmetry_equiv_pos_site_id
 _symmetry_equiv_pos_as_xyz
  1  'x, y, z'
loop_
 _atom_site_type_symbol
 _atom_site_label
 _atom_site_symmetry_multiplicity
 _atom_site_fract_x
 _atom_site_fract_y
 _atom_site_fract_z
 _atom_site_occupancy
  F  F0  1  0.39039389  0.59358762  0.78059789  1
  F  F1  1  0.10960611  -0.59358762  1.28059789  1
  F  F2  1  -0.34358762  1.14039389  1.03059789  1
  F  F3  1  0.84358762  -0.14039389  1.53059789  1
  F  F4  1  0.10960611  0.59358762  -0.28059789  1
  F  F5  1  0.39039389  -0.59358762  -0.78059789  1
  F  F6  1  0.84358762  1.14039389  -0.53059789  1
  F  F7  1  -0.34358762  -0.14039389  -0.03059789  1
  F  F8  1  -0.39039389  -0.59358762  -0.78059789  1
  F  F9  1  0.89039389  0.59358762  -0.28059789  1
  F  F10  1  1.34358762  -0.14039389  -0.03059789  1
  F  F11  1  0.15641238  1.14039389  -0.53059789  1
  F  F12  1  0.89039389  -0.59358762  1.28059789  1
  F  F13  1  -0.39039389  0.59358762  0.78059789  1
  F  F14  1  0.15641238  -0.14039389  1.53059789  1
  F  F15  1  1.34358762  1.14039389  1.03059789  1
  F  F16  1  0.89039389  1.09358762  1.28059789  1
  F  F17  1  0.60960611  -0.09358762  1.78059789  1
  F  F18  1  0.15641238  1.64039389  1.53059789  1
  F  F19  1  1.34358762  0.35960611  2.03059789  1
  F  F20  1  0.60960611  1.09358762  0.21940211  1
  F  F21  1  0.89039389  -0.09358762  -0.28059789  1
  F  F22  1  1.34358762  1.64039389  -0.03059789  1
  F  F23  1  0.15641238  0.35960611  0.46940211  1
  F  F24  1  0.10960611  -0.09358762  -0.28059789  1
  F  F25  1  1.39039389  1.09358762  0.21940211  1
  F  F26  1  1.84358762  0.35960611  0.46940211  1
  F  F27  1  0.65641238  1.64039389  -0.03059789  1
  F  F28  1  1.39039389  -0.09358762  1.78059789  1
  F  F29  1  0.10960611  1.09358762  1.28059789  1
  F  F30  1  0.65641238  0.35960611  2.03059789  1
  F  F31  1  1.84358762  1.64039389  1.53059789  1
  F  F32  1  0.00000000  0.05714952  0.97027986  1
  F  F33  1  0.50000000  0.94285048  0.47027986  1
  F  F34  1  0.19285048  0.75000000  0.22027986  1
  F  F35  1  0.30714952  0.25000000  0.72027986  1
  F  F36  1  0.50000000  0.05714952  0.52972014  1
  F  F37  1  0.00000000  0.94285048  0.02972014  1
  F  F38  1  0.30714952  0.75000000  0.27972014  1
  F  F39  1  0.19285048  0.25000000  0.77972014  1
  F  F40  1  0.50000000  0.55714952  0.47027986  1
  F  F41  1  0.00000000  0.44285048  0.97027986  1
  F  F42  1  0.69285048  0.25000000  0.72027986  1
  F  F43  1  0.80714952  0.75000000  0.22027986  1
  F  F44  1  0.00000000  0.55714952  0.02972014  1
  F  F45  1  0.50000000  0.44285048  0.52972014  1
  F  F46  1  0.80714952  0.25000000  0.77972014  1
  F  F47  1  0.69285048  0.75000000  0.27972014  1
  Li  Li48  1  0.00000000  0.25000000  0.48726709  1
  Li  Li49  1  0.00000000  0.75000000  0.73726709  1
  Li  Li50  1  0.50000000  0.25000000  0.01273291  1
  Li  Li51  1  0.50000000  0.75000000  0.76273291  1
  Li  Li52  1  0.50000000  0.75000000  0.98726709  1
  Li  Li53  1  0.50000000  0.25000000  0.23726709  1
  Li  Li54  1  0.00000000  0.75000000  0.51273291  1
  Li  Li55  1  0.00000000  0.25000000  0.26273291  1
  Si  Si56  1  0.11035651  0.00000000  0.00000000  1
  Si  Si57  1  0.38964349  0.00000000  0.50000000  1
  Si  Si58  1  0.25000000  0.86035651  0.25000000  1
  Si  Si59  1  0.25000000  0.13964349  0.75000000  1
  Si  Si60  1  0.88964349  0.00000000  0.00000000  1
  Si  Si61  1  0.61035651  0.00000000  0.50000000  1
  Si  Si62  1  0.75000000  0.13964349  0.75000000  1
  Si  Si63  1  0.75000000  0.86035651  0.25000000  1
  Si  Si64  1  0.61035651  0.50000000  0.50000000  1
  Si  Si65  1  0.88964349  0.50000000  -0.00000000  1
  Si  Si66  1  0.75000000  0.36035651  0.75000000  1
  Si  Si67  1  0.75000000  0.63964349  0.25000000  1
  Si  Si68  1  0.38964349  0.50000000  0.50000000  1
  Si  Si69  1  0.11035651  0.50000000  0.00000000  1
  Si  Si70  1  0.25000000  0.63964349  0.25000000  1
  Si  Si71  1  0.25000000  0.36035651  0.75000000  1
  Te  Te72  1  0.00000000  0.00000000  0.50000000  1
  Te  Te73  1  0.50000000  0.00000000  0.00000000  1
  Te  Te74  1  0.25000000  0.75000000  0.75000000  1
  Te  Te75  1  0.25000000  0.25000000  0.25000000  1
  Te  Te76  1  0.50000000  0.50000000  0.00000000  1
  Te  Te77  1  0.00000000  0.50000000  0.50000000  1
  Te  Te78  1  0.75000000  0.25000000  0.25000000  1
  Te  Te79  1  0.75000000  0.75000000  0.75000000  1
  Te  Te80  1  0.00000000  0.75000000  0.12500000  1
  Te  Te81  1  0.50000000  0.75000000  0.37500000  1
  Te  Te82  1  0.50000000  0.25000000  0.62500000  1
  Te  Te83  1  0.00000000  0.25000000  0.87500000  1
