# generated using pymatgen
data_LiF
_symmetry_space_group_name_H-M   'P 1'
_cell_length_a   13.96120759
_cell_length_b   5.59043199
_cell_length_c   8.90694751
_cell_angle_alpha   90.00000000
_cell_angle_beta   90.00000000
_cell_angle_gamma   90.00000000
_symmetry_Int_Tables_number   1
_chemical_formula_structural   LiF
_chemical_formula_sum   'Li24 F24'
_cell_volume   695.17996267
_cell_formula_units_Z   24
loop_
 _symmetry_equiv_pos_site_id
 _symmetry_equiv_pos_as_xyz
  1  'x, y, z'
loop_
 _atom_site_type_symbol
 _atom_site_label
 _atom_site_symmetry_multiplicity
 _atom_site_fract_x
 _atom_site_fract_y
 _atom_site_fract_z
 _atom_site_occupancy
  F  F0  1  0.72273486  0.61418947  0.57558690  1
  F  F1  1  -0.22273486  -0.61418947  1.07558690  1
  F  F2  1  -0.72273486  1.11418947  -0.57558690  1
  F  F3  1  1.22273486  -0.11418947  -0.07558690  1
  F  F4  1  -0.72273486  -0.61418947  -0.57558690  1
  F  F5  1  1.22273486  0.61418947  -0.07558690  1
  F  F6  1  0.72273486  -0.11418947  0.57558690  1
  F  F7  1  -0.22273486  1.11418947  1.07558690  1
  F  F8  1  0.98732960  0.25000000  0.72393466  1
  F  F9  1  0.51267040  0.75000000  0.22393466  1
  F  F10  1  0.01267040  0.75000000  0.27606534  1
  F  F11  1  0.48732960  0.25000000  0.77606534  1
  F  F12  1  0.03891519  0.37170037  0.20998097  1
  F  F13  1  0.46108481  0.62829963  0.70998097  1
  F  F14  1  0.96108481  0.87170037  0.79001903  1
  F  F15  1  0.53891519  0.12829963  0.29001903  1
  F  F16  1  0.96108481  0.62829963  0.79001903  1
  F  F17  1  0.53891519  0.37170037  0.29001903  1
  F  F18  1  0.03891519  0.12829963  0.20998097  1
  F  F19  1  0.46108481  0.87170037  0.70998097  1
  F  F20  1  0.36443903  0.25000000  0.57888816  1
  F  F21  1  0.13556097  0.75000000  0.07888816  1
  F  F22  1  0.63556097  0.75000000  0.42111184  1
  F  F23  1  0.86443903  0.25000000  0.92111184  1
  Li  Li24  1  0.00000000  0.00000000  0.00000000  1
  Li  Li25  1  0.50000000  0.00000000  0.50000000  1
  Li  Li26  1  0.00000000  0.50000000  0.00000000  1
  Li  Li27  1  0.50000000  0.50000000  0.50000000  1
  Li  Li28  1  0.94598791  0.25000000  0.14560855  1
  Li  Li29  1  0.55401209  0.75000000  0.64560855  1
  Li  Li30  1  0.05401209  0.75000000  0.85439145  1
  Li  Li31  1  0.44598791  0.25000000  0.35439145  1
  Li  Li32  1  0.69192472  0.25000000  0.47549685  1
  Li  Li33  1  0.80807528  0.75000000  0.97549685  1
  Li  Li34  1  0.30807528  0.75000000  0.52450315  1
  Li  Li35  1  0.19192472  0.25000000  0.02450315  1
  Li  Li36  1  0.34517033  0.25000000  0.44594522  1
  Li  Li37  1  0.15482967  0.75000000  0.94594522  1
  Li  Li38  1  0.65482967  0.75000000  0.55405478  1
  Li  Li39  1  0.84517033  0.25000000  0.05405478  1
  Li  Li40  1  0.04175197  0.25000000  0.50885776  1
  Li  Li41  1  0.45824803  0.75000000  0.00885776  1
  Li  Li42  1  0.95824803  0.75000000  0.49114224  1
  Li  Li43  1  0.54175197  0.25000000  0.99114224  1
  Li  Li44  1  0.00000000  0.00000000  0.50000000  1
  Li  Li45  1  0.50000000  0.00000000  0.00000000  1
  Li  Li46  1  0.00000000  0.50000000  0.50000000  1
  Li  Li47  1  0.50000000  0.50000000  0.00000000  1
