# generated using pymatgen
data_Li2Si4Te3F12
_symmetry_space_group_name_H-M   'P 1'
_cell_length_a   9.72083513
_cell_length_b   13.26599198
_cell_length_c   12.92254947
_cell_angle_alpha   90.00000000
_cell_angle_beta   90.00000000
_cell_angle_gamma   90.00000000
_symmetry_Int_Tables_number   1
_chemical_formula_structural   Li2Si4Te3F12
_chemical_formula_sum   'Li8 Si16 Te12 F48'
_cell_volume   1666.44702127
_cell_formula_units_Z   4
loop_
 _symmetry_equiv_pos_site_id
 _symmetry_equiv_pos_as_xyz
  1  'x, y, z'
loop_
 _atom_site_type_symbol
 _atom_site_label
 _atom_site_symmetry_multiplicity
 _atom_site_fract_x
 _atom_site_fract_y
 _atom_site_fract_z
 _atom_site_occupancy
  F  F0  1  0.48634331  0.54422271  0.73489917  1
  F  F1  1  0.51365669  0.45577729  0.73489917  1
  F  F2  1  0.01365669  0.04422271  0.26510083  1
  F  F3  1  0.98634331  0.95577729  0.26510083  1
  F  F4  1  0.51365669  0.45577729  0.26510083  1
  F  F5  1  0.48634331  0.54422271  0.26510083  1
  F  F6  1  0.98634331  0.95577729  0.73489917  1
  F  F7  1  0.01365669  0.04422271  0.73489917  1
  F  F8  1  0.21178238  0.12769804  0.78471252  1
  F  F9  1  0.78821762  0.87230196  0.78471252  1
  F  F10  1  0.28821762  0.62769804  0.21528748  1
  F  F11  1  0.71178238  0.37230196  0.21528748  1
  F  F12  1  0.78821762  0.87230196  0.21528748  1
  F  F13  1  0.21178238  0.12769804  0.21528748  1
  F  F14  1  0.71178238  0.37230196  0.78471252  1
  F  F15  1  0.28821762  0.62769804  0.78471252  1
  F  F16  1  0.60836052  0.01327430  0.30869609  1
  F  F17  1  0.39163948  0.98672570  0.30869609  1
  F  F18  1  0.89163948  0.51327430  0.69130391  1
  F  F19  1  0.10836052  0.48672570  0.69130391  1
  F  F20  1  0.39163948  0.98672570  0.69130391  1
  F  F21  1  0.60836052  0.01327430  0.69130391  1
  F  F22  1  0.10836052  0.48672570  0.30869609  1
  F  F23  1  0.89163948  0.51327430  0.30869609  1
  F  F24  1  0.40971799  0.95193280  0.46619485  1
  F  F25  1  0.59028201  0.04806720  0.46619485  1
  F  F26  1  0.09028201  0.45193280  0.53380515  1
  F  F27  1  0.90971799  0.54806720  0.53380515  1
  F  F28  1  0.59028201  0.04806720  0.53380515  1
  F  F29  1  0.40971799  0.95193280  0.53380515  1
  F  F30  1  0.90971799  0.54806720  0.46619485  1
  F  F31  1  0.09028201  0.45193280  0.46619485  1
  F  F32  1  0.50041604  0.86590401  0.94272813  1
  F  F33  1  0.49958396  0.13409599  0.94272813  1
  F  F34  1  0.99958396  0.36590401  0.05727187  1
  F  F35  1  0.00041604  0.63409599  0.05727187  1
  F  F36  1  0.49958396  0.13409599  0.05727187  1
  F  F37  1  0.50041604  0.86590401  0.05727187  1
  F  F38  1  0.00041604  0.63409599  0.94272813  1
  F  F39  1  0.99958396  0.36590401  0.94272813  1
  F  F40  1  0.01907420  0.67398700  0.93230215  1
  F  F41  1  0.98092580  0.32601300  0.93230215  1
  F  F42  1  0.48092580  0.17398700  0.06769785  1
  F  F43  1  0.51907420  0.82601300  0.06769785  1
  F  F44  1  0.98092580  0.32601300  0.06769785  1
  F  F45  1  0.01907420  0.67398700  0.06769785  1
  F  F46  1  0.51907420  0.82601300  0.93230215  1
  F  F47  1  0.48092580  0.17398700  0.93230215  1
  Li  Li48  1  0.85614459  0.82041336  0.50000000  1
  Li  Li49  1  0.14385541  0.17958664  0.50000000  1
  Li  Li50  1  0.64385541  0.32041336  0.50000000  1
  Li  Li51  1  0.35614459  0.67958664  0.50000000  1
  Li  Li52  1  0.00000000  0.00000000  0.50000000  1
  Li  Li53  1  0.50000000  0.50000000  0.50000000  1
  Li  Li54  1  0.00000000  0.50000000  0.00000000  1
  Li  Li55  1  0.50000000  0.00000000  0.00000000  1
  Si  Si56  1  0.00000000  0.50000000  0.50000000  1
  Si  Si57  1  0.50000000  0.00000000  0.50000000  1
  Si  Si58  1  0.86999634  0.09717227  0.81065732  1
  Si  Si59  1  -0.86999634  -0.09717227  0.81065732  1
  Si  Si60  1  -0.36999634  0.59717227  -0.81065732  1
  Si  Si61  1  1.36999634  0.40282773  -0.81065732  1
  Si  Si62  1  -0.86999634  -0.09717227  -0.81065732  1
  Si  Si63  1  0.86999634  0.09717227  -0.81065732  1
  Si  Si64  1  1.36999634  0.40282773  0.81065732  1
  Si  Si65  1  -0.36999634  0.59717227  0.81065732  1
  Si  Si66  1  0.00000000  0.50000000  0.37618796  1
  Si  Si67  1  0.50000000  0.00000000  0.62381204  1
  Si  Si68  1  0.00000000  0.50000000  0.62381204  1
  Si  Si69  1  0.50000000  0.00000000  0.37618796  1
  Si  Si70  1  0.00000000  0.00000000  0.00000000  1
  Si  Si71  1  0.50000000  0.50000000  0.00000000  1
  Te  Te72  1  0.84966713  0.17924216  0.31791087  1
  Te  Te73  1  0.15033287  0.82075784  0.31791087  1
  Te  Te74  1  0.65033287  0.67924216  0.68208913  1
  Te  Te75  1  0.34966713  0.32075784  0.68208913  1
  Te  Te76  1  0.15033287  0.82075784  0.68208913  1
  Te  Te77  1  0.84966713  0.17924216  0.68208913  1
  Te  Te78  1  0.34966713  0.32075784  0.31791087  1
  Te  Te79  1  0.65033287  0.67924216  0.31791087  1
  Te  Te80  1  0.64338521  0.51198212  0.00000000  1
  Te  Te81  1  0.35661479  0.48801788  0.00000000  1
  Te  Te82  1  0.85661479  0.01198212  0.00000000  1
  Te  Te83  1  0.14338521  0.98801788  -0.00000000  1
