# generated using pymatgen
data_Li3Y2Sb2(PSe)2
_symmetry_space_group_name_H-M   'P 1'
_cell_length_a   5.16698856
_cell_length_b   5.37755069
_cell_length_c   7.20771699
_cell_angle_alpha   94.40387991
_cell_angle_beta   99.59073488
_cell_angle_gamma   107.68863529
_symmetry_Int_Tables_number   1
_chemical_formula_structural   Li3Y2Sb2(PSe)2
_chemical_formula_sum   'Li3 Y2 Sb2 P2 Se2'
_cell_volume   186.39800250
_cell_formula_units_Z   1
loop_
 _symmetry_equiv_pos_site_id
 _symmetry_equiv_pos_as_xyz
  1  'x, y, z'
loop_
 _atom_site_type_symbol
 _atom_site_label
 _atom_site_symmetry_multiplicity
 _atom_site_fract_x
 _atom_site_fract_y
 _atom_site_fract_z
 _atom_site_occupancy
  P  P0  1  0.00000000  0.00000000  0.00000000  1
  P  P1  1  0.50000000  0.50000000  0.50000000  1
  Se  Se2  1  0.25000000  0.25000000  0.25000000  1
  Se  Se3  1  0.75000000  0.25000000  0.00000000  1
  Li  Li4  1  0.25000000  0.75000000  0.50000000  1
  Li  Li5  1  0.51875109  0.45665932  0.41984115  1
  Li  Li6  1  0.28834245  0.35980407  0.13124970  1
  Y  Y7  1  0.23870676  0.64096491  0.98977153  1
  Y  Y8  1  0.08265010  0.26869829  0.27526400  1
  Sb  Sb9  1  0.46474409  0.10687621  0.10801261  1
  Sb  Sb10  1  0.39584881  0.38147068  0.10791124  1
