# generated using pymatgen
data_LiYP2Se
_symmetry_space_group_name_H-M   'P 1'
_cell_length_a   4.80406527
_cell_length_b   5.11715854
_cell_length_c   7.11385290
_cell_angle_alpha   95.06213405
_cell_angle_beta   101.02427556
_cell_angle_gamma   110.33258057
_symmetry_Int_Tables_number   1
_chemical_formula_structural   LiYP2Se
_chemical_formula_sum   'Li2 Y2 P4 Se2'
_cell_volume   158.66895078
_cell_formula_units_Z   2
loop_
 _symmetry_equiv_pos_site_id
 _symmetry_equiv_pos_as_xyz
  1  'x, y, z'
loop_
 _atom_site_type_symbol
 _atom_site_label
 _atom_site_symmetry_multiplicity
 _atom_site_fract_x
 _atom_site_fract_y
 _atom_site_fract_z
 _atom_site_occupancy
  P  P0  1  0.00000000  0.00000000  0.00000000  1
  P  P1  1  0.50000000  0.50000000  0.50000000  1
  P  P2  1  0.25000000  0.25000000  0.25000000  1
  P  P3  1  0.75000000  0.25000000  0.00000000  1
  Se  Se4  1  0.25000000  0.75000000  0.50000000  1
  Se  Se5  1  0.42410976  0.23133845  0.82825563  1
  Li  Li6  1  0.83108065  0.97227938  0.71914070  1
  Li  Li7  1  0.05891737  0.22846245  0.80112540  1
  Y  Y8  1  0.29388851  0.74802881  0.11160855  1
  Y  Y9  1  0.30581567  0.47478145  0.00951402  1
