# generated using pymatgen
data_Li2Ca3F8
_symmetry_space_group_name_H-M   'P 1'
_cell_length_a   12.73310126
_cell_length_b   12.73310126
_cell_length_c   11.28765240
_cell_angle_alpha   90.00000000
_cell_angle_beta   90.00000000
_cell_angle_gamma   120.00000000
_symmetry_Int_Tables_number   1
_chemical_formula_structural   Li2Ca3F8
_chemical_formula_sum   'Li16 Ca24 F64'
_cell_volume   1584.90284246
_cell_formula_units_Z   8
loop_
 _symmetry_equiv_pos_site_id
 _symmetry_equiv_pos_as_xyz
  1  'x, y, z'
loop_
 _atom_site_type_symbol
 _atom_site_label
 _atom_site_symmetry_multiplicity
 _atom_site_fract_x
 _atom_site_fract_y
 _atom_site_fract_z
 _atom_site_occupancy
  Ca  Ca0  1  0.83439787  0.06548617  0.55836904  1
  Ca  Ca1  1  0.93451383  0.76891170  0.55836904  1
  Ca  Ca2  1  0.23108830  0.16560213  0.55836904  1
  Ca  Ca3  1  0.93451383  0.16560213  0.44163096  1
  Ca  Ca4  1  0.23108830  0.06548617  0.44163096  1
  Ca  Ca5  1  0.83439787  0.76891170  0.44163096  1
  Ca  Ca6  1  0.28937113  0.38498583  0.41608621  1
  Ca  Ca7  1  0.61501417  0.90438530  0.41608621  1
  Ca  Ca8  1  0.09561470  0.71062887  0.41608621  1
  Ca  Ca9  1  0.61501417  0.71062887  0.58391379  1
  Ca  Ca10  1  0.09561470  0.38498583  0.58391379  1
  Ca  Ca11  1  0.28937113  0.90438530  0.58391379  1
  Ca  Ca12  1  0.38979717  0.61020283  0.50000000  1
  Ca  Ca13  1  0.38979717  0.77959435  0.50000000  1
  Ca  Ca14  1  0.22040565  0.61020283  0.50000000  1
  Ca  Ca15  1  0.66983822  0.57176181  0.32963880  1
  Ca  Ca16  1  0.42823819  0.09807641  0.32963880  1
  Ca  Ca17  1  0.90192359  0.33016178  0.32963880  1
  Ca  Ca18  1  0.42823819  0.33016178  0.67036120  1
  Ca  Ca19  1  0.90192359  0.57176181  0.67036120  1
  Ca  Ca20  1  0.66983822  0.09807641  0.67036120  1
  Ca  Ca21  1  0.15408053  0.84591947  0.50000000  1
  Ca  Ca22  1  0.15408053  0.30816105  0.50000000  1
  Ca  Ca23  1  0.69183895  0.84591947  0.50000000  1
  F  F24  1  0.39566061  0.16419905  0.08242482  1
  F  F25  1  -0.16419905  0.23146156  0.08242482  1
  F  F26  1  -0.23146156  -0.39566061  0.08242482  1
  F  F27  1  -0.16419905  -0.39566061  -0.08242482  1
  F  F28  1  -0.23146156  0.16419905  -0.08242482  1
  F  F29  1  0.39566061  0.23146156  -0.08242482  1
  F  F30  1  0.57491422  0.00142223  0.68587787  1
  F  F31  1  0.99857777  0.57349200  0.68587787  1
  F  F32  1  0.42650800  0.42508578  0.68587787  1
  F  F33  1  0.99857777  0.42508578  0.31412213  1
  F  F34  1  0.42650800  0.00142223  0.31412213  1
  F  F35  1  0.57491422  0.57349200  0.31412213  1
  F  F36  1  0.81265200  0.33520196  0.68243892  1
  F  F37  1  0.66479804  0.47745004  0.68243892  1
  F  F38  1  0.52254996  0.18734800  0.68243892  1
  F  F39  1  0.66479804  0.18734800  0.31756108  1
  F  F40  1  0.52254996  0.33520196  0.31756108  1
  F  F41  1  0.81265200  0.47745004  0.31756108  1
  F  F42  1  0.30723419  0.11388663  0.05945817  1
  F  F43  1  0.88611337  0.19334756  0.05945817  1
  F  F44  1  0.80665244  0.69276581  0.05945817  1
  F  F45  1  0.88611337  0.69276581  0.94054183  1
  F  F46  1  0.80665244  0.11388663  0.94054183  1
  F  F47  1  0.30723419  0.19334756  0.94054183  1
  F  F48  1  0.33333333  0.66666667  0.50000000  1
  F  F49  1  0.66666667  0.33333333  0.77118318  1
  F  F50  1  0.66666667  0.33333333  0.22881682  1
  F  F51  1  0.75140122  0.50958285  0.05964202  1
  F  F52  1  0.49041715  0.24181838  0.05964202  1
  F  F53  1  0.75818162  0.24859878  0.05964202  1
  F  F54  1  0.49041715  0.24859878  0.94035798  1
  F  F55  1  0.75818162  0.50958285  0.94035798  1
  F  F56  1  0.75140122  0.24181838  0.94035798  1
  F  F57  1  0.97440292  0.38779665  0.69055039  1
  F  F58  1  0.61220335  0.58660627  0.69055039  1
  F  F59  1  0.41339373  0.02559708  0.69055039  1
  F  F60  1  0.61220335  0.02559708  0.30944961  1
  F  F61  1  0.41339373  0.38779665  0.30944961  1
  F  F62  1  0.97440292  0.58660627  0.30944961  1
  F  F63  1  0.00000000  0.00000000  0.24910337  1
  F  F64  1  0.00000000  0.00000000  0.75089663  1
  F  F65  1  0.66666667  0.33333333  0.59134106  1
  F  F66  1  0.66666667  0.33333333  0.40865894  1
  F  F67  1  0.33333333  0.66666667  0.73810588  1
  F  F68  1  0.33333333  0.66666667  0.26189412  1
  F  F69  1  0.24420172  0.82593736  0.49818269  1
  F  F70  1  0.17406264  0.41826436  0.49818269  1
  F  F71  1  0.58173564  0.75579828  0.49818269  1
  F  F72  1  0.17406264  0.75579828  0.50181731  1
  F  F73  1  0.58173564  0.82593736  0.50181731  1
  F  F74  1  0.24420172  0.41826436  0.50181731  1
  F  F75  1  0.33333333  0.66666667  0.42668504  1
  F  F76  1  0.33333333  0.66666667  0.57331496  1
  F  F77  1  0.33333333  0.66666667  0.00000000  1
  F  F78  1  0.34677867  0.36831065  0.10240702  1
  F  F79  1  0.63168935  0.97846803  0.10240702  1
  F  F80  1  0.02153197  0.65322133  0.10240702  1
  F  F81  1  0.63168935  0.65322133  0.89759298  1
  F  F82  1  0.02153197  0.36831065  0.89759298  1
  F  F83  1  0.34677867  0.97846803  0.89759298  1
  F  F84  1  0.07512466  0.92487534  0.50000000  1
  F  F85  1  0.07512466  0.15024932  0.50000000  1
  F  F86  1  0.84975068  0.92487534  0.50000000  1
  F  F87  1  0.66666667  0.33333333  0.50000000  1
  Li  Li88  1  0.45194162  0.45061157  0.07697639  1
  Li  Li89  1  0.54938843  0.00133005  0.07697639  1
  Li  Li90  1  0.99866995  0.54805838  0.07697639  1
  Li  Li91  1  0.54938843  0.54805838  0.92302361  1
  Li  Li92  1  0.99866995  0.45061157  0.92302361  1
  Li  Li93  1  0.45194162  0.00133005  0.92302361  1
  Li  Li94  1  0.00000000  0.00000000  0.00000000  1
  Li  Li95  1  0.00000000  0.00000000  0.50000000  1
  Li  Li96  1  0.92838933  0.95027270  0.30138711  1
  Li  Li97  1  0.04972730  0.97811663  0.30138711  1
  Li  Li98  1  0.02188337  0.07161067  0.30138711  1
  Li  Li99  1  0.04972730  0.07161067  0.69861289  1
  Li  Li100  1  0.02188337  0.95027270  0.69861289  1
  Li  Li101  1  0.92838933  0.97811663  0.69861289  1
  Li  Li102  1  0.33333333  0.66666667  0.13973673  1
  Li  Li103  1  0.33333333  0.66666667  0.86026327  1
