# generated using pymatgen
data_Li2Si4Te3F12
_symmetry_space_group_name_H-M   'P 1'
_cell_length_a   18.87073750
_cell_length_b   18.87073750
_cell_length_c   3.22334673
_cell_angle_alpha   90.00000000
_cell_angle_beta   90.00000000
_cell_angle_gamma   120.00000000
_symmetry_Int_Tables_number   1
_chemical_formula_structural   Li2Si4Te3F12
_chemical_formula_sum   'Li8 Si16 Te12 F48'
_cell_volume   994.06642055
_cell_formula_units_Z   4
loop_
 _symmetry_equiv_pos_site_id
 _symmetry_equiv_pos_as_xyz
  1  'x, y, z'
loop_
 _atom_site_type_symbol
 _atom_site_label
 _atom_site_symmetry_multiplicity
 _atom_site_fract_x
 _atom_site_fract_y
 _atom_site_fract_z
 _atom_site_occupancy
  F  F0  1  0.40568445  0.73376812  0.99596105  1
  F  F1  1  -0.73376812  -0.32808367  0.99596105  1
  F  F2  1  0.32808367  -0.40568445  0.99596105  1
  F  F3  1  -0.40568445  -0.73376812  1.49596105  1
  F  F4  1  0.73376812  0.32808367  1.49596105  1
  F  F5  1  -0.32808367  0.40568445  1.49596105  1
  F  F6  1  -0.40568445  -0.73376812  -0.99596105  1
  F  F7  1  0.73376812  0.32808367  -0.99596105  1
  F  F8  1  -0.32808367  0.40568445  -0.99596105  1
  F  F9  1  0.40568445  0.73376812  -0.49596105  1
  F  F10  1  -0.73376812  -0.32808367  -0.49596105  1
  F  F11  1  0.32808367  -0.40568445  -0.49596105  1
  F  F12  1  0.89322105  0.92359244  0.25000000  1
  F  F13  1  0.07640756  0.96962862  0.25000000  1
  F  F14  1  0.03037138  0.10677895  0.25000000  1
  F  F15  1  0.10677895  0.07640756  0.75000000  1
  F  F16  1  0.92359244  0.03037138  0.75000000  1
  F  F17  1  0.96962862  0.89322105  0.75000000  1
  F  F18  1  0.68760984  0.48713162  0.48089942  1
  F  F19  1  0.51286838  0.20047822  0.48089942  1
  F  F20  1  0.79952178  0.31239016  0.48089942  1
  F  F21  1  0.31239016  0.51286838  0.98089942  1
  F  F22  1  0.48713162  0.79952178  0.98089942  1
  F  F23  1  0.20047822  0.68760984  0.98089942  1
  F  F24  1  0.31239016  0.51286838  0.51910058  1
  F  F25  1  0.48713162  0.79952178  0.51910058  1
  F  F26  1  0.20047822  0.68760984  0.51910058  1
  F  F27  1  0.68760984  0.48713162  0.01910058  1
  F  F28  1  0.51286838  0.20047822  0.01910058  1
  F  F29  1  0.79952178  0.31239016  0.01910058  1
  F  F30  1  0.33726095  0.03418228  0.25000000  1
  F  F31  1  0.96581772  0.30307867  0.25000000  1
  F  F32  1  0.69692133  0.66273905  0.25000000  1
  F  F33  1  0.66273905  0.96581772  0.75000000  1
  F  F34  1  0.03418228  0.69692133  0.75000000  1
  F  F35  1  0.30307867  0.33726095  0.75000000  1
  F  F36  1  0.58080750  0.51805041  0.25000000  1
  F  F37  1  0.48194959  0.06275709  0.25000000  1
  F  F38  1  0.93724291  0.41919250  0.25000000  1
  F  F39  1  0.41919250  0.48194959  0.75000000  1
  F  F40  1  0.51805041  0.93724291  0.75000000  1
  F  F41  1  0.06275709  0.58080750  0.75000000  1
  F  F42  1  0.56196263  0.11368103  0.25000000  1
  F  F43  1  0.88631897  0.44828160  0.25000000  1
  F  F44  1  0.55171840  0.43803737  0.25000000  1
  F  F45  1  0.43803737  0.88631897  0.75000000  1
  F  F46  1  0.11368103  0.55171840  0.75000000  1
  F  F47  1  0.44828160  0.56196263  0.75000000  1
  Li  Li48  1  0.33333333  0.66666667  0.25000000  1
  Li  Li49  1  0.66666667  0.33333333  0.75000000  1
  Li  Li50  1  0.97814767  0.14378952  0.25000000  1
  Li  Li51  1  0.85621048  0.83435816  0.25000000  1
  Li  Li52  1  0.16564184  0.02185233  0.25000000  1
  Li  Li53  1  0.02185233  0.85621048  0.75000000  1
  Li  Li54  1  0.14378952  0.16564184  0.75000000  1
  Li  Li55  1  0.83435816  0.97814767  0.75000000  1
  Si  Si56  1  0.22651640  0.45086124  0.25000000  1
  Si  Si57  1  0.54913876  0.77565516  0.25000000  1
  Si  Si58  1  0.22434484  0.77348360  0.25000000  1
  Si  Si59  1  0.77348360  0.54913876  0.75000000  1
  Si  Si60  1  0.45086124  0.22434484  0.75000000  1
  Si  Si61  1  0.77565516  0.22651640  0.75000000  1
  Si  Si62  1  0.50000000  0.00000000  0.00000000  1
  Si  Si63  1  0.00000000  0.50000000  0.00000000  1
  Si  Si64  1  0.50000000  0.50000000  0.00000000  1
  Si  Si65  1  0.50000000  0.00000000  0.50000000  1
  Si  Si66  1  0.00000000  0.50000000  0.50000000  1
  Si  Si67  1  0.50000000  0.50000000  0.50000000  1
  Si  Si68  1  0.66666667  0.33333333  0.25000000  1
  Si  Si69  1  0.33333333  0.66666667  0.75000000  1
  Si  Si70  1  0.00000000  0.00000000  0.00000000  1
  Si  Si71  1  0.00000000  0.00000000  0.50000000  1
  Te  Te72  1  0.20585644  0.19752962  0.25000000  1
  Te  Te73  1  0.80247038  0.00832682  0.25000000  1
  Te  Te74  1  0.99167318  0.79414356  0.25000000  1
  Te  Te75  1  0.79414356  0.80247038  0.75000000  1
  Te  Te76  1  0.19752962  0.99167318  0.75000000  1
  Te  Te77  1  0.00832682  0.20585644  0.75000000  1
  Te  Te78  1  0.36239302  0.44462632  0.25000000  1
  Te  Te79  1  0.55537368  0.91776670  0.25000000  1
  Te  Te80  1  0.08223330  0.63760698  0.25000000  1
  Te  Te81  1  0.63760698  0.55537368  0.75000000  1
  Te  Te82  1  0.44462632  0.08223330  0.75000000  1
  Te  Te83  1  0.91776670  0.36239302  0.75000000  1
