# generated using pymatgen
data_Li4TeF2
_symmetry_space_group_name_H-M   'P 1'
_cell_length_a   13.87515300
_cell_length_b   13.87515300
_cell_length_c   13.87515300
_cell_angle_alpha   90.00000000
_cell_angle_beta   90.00000000
_cell_angle_gamma   90.00000000
_symmetry_Int_Tables_number   1
_chemical_formula_structural   Li4TeF2
_chemical_formula_sum   'Li96 Te24 F48'
_cell_volume   2671.24266060
_cell_formula_units_Z   24
loop_
 _symmetry_equiv_pos_site_id
 _symmetry_equiv_pos_as_xyz
  1  'x, y, z'
loop_
 _atom_site_type_symbol
 _atom_site_label
 _atom_site_symmetry_multiplicity
 _atom_site_fract_x
 _atom_site_fract_y
 _atom_site_fract_z
 _atom_site_occupancy
  F  F0  1  0.78752812  0.31923042  0.75975265  1
  F  F1  1  -0.28752812  -0.31923042  1.25975265  1
  F  F2  1  -0.78752812  0.81923042  -0.25975265  1
  F  F3  1  1.28752812  0.18076958  -0.75975265  1
  F  F4  1  0.75975265  0.78752812  0.31923042  1
  F  F5  1  1.25975265  -0.28752812  -0.31923042  1
  F  F6  1  -0.25975265  -0.78752812  0.81923042  1
  F  F7  1  -0.75975265  1.28752812  0.18076958  1
  F  F8  1  0.31923042  0.75975265  0.78752812  1
  F  F9  1  -0.31923042  1.25975265  -0.28752812  1
  F  F10  1  0.81923042  -0.25975265  -0.78752812  1
  F  F11  1  0.18076958  -0.75975265  1.28752812  1
  F  F12  1  1.06923042  1.03752812  -0.50975265  1
  F  F13  1  0.43076958  -0.03752812  -0.00975265  1
  F  F14  1  0.56923042  -0.53752812  1.50975265  1
  F  F15  1  -0.06923042  1.53752812  1.00975265  1
  F  F16  1  1.53752812  1.00975265  -0.06923042  1
  F  F17  1  -0.53752812  1.50975265  0.56923042  1
  F  F18  1  -0.03752812  -0.00975265  0.43076958  1
  F  F19  1  1.03752812  -0.50975265  1.06923042  1
  F  F20  1  1.50975265  0.56923042  -0.53752812  1
  F  F21  1  1.00975265  -0.06923042  1.53752812  1
  F  F22  1  -0.50975265  1.06923042  1.03752812  1
  F  F23  1  -0.00975265  0.43076958  -0.03752812  1
  F  F24  1  1.28752812  0.81923042  1.25975265  1
  F  F25  1  0.21247188  0.18076958  1.75975265  1
  F  F26  1  -0.28752812  1.31923042  0.24024735  1
  F  F27  1  1.78752812  0.68076958  -0.25975265  1
  F  F28  1  1.25975265  1.28752812  0.81923042  1
  F  F29  1  1.75975265  0.21247188  0.18076958  1
  F  F30  1  0.24024735  -0.28752812  1.31923042  1
  F  F31  1  -0.25975265  1.78752812  0.68076958  1
  F  F32  1  0.81923042  1.25975265  1.28752812  1
  F  F33  1  0.18076958  1.75975265  0.21247188  1
  F  F34  1  1.31923042  0.24024735  -0.28752812  1
  F  F35  1  0.68076958  -0.25975265  1.78752812  1
  F  F36  1  1.56923042  1.53752812  -0.00975265  1
  F  F37  1  0.93076958  0.46247188  0.49024735  1
  F  F38  1  1.06923042  -0.03752812  2.00975265  1
  F  F39  1  0.43076958  2.03752812  1.50975265  1
  F  F40  1  2.03752812  1.50975265  0.43076958  1
  F  F41  1  -0.03752812  2.00975265  1.06923042  1
  F  F42  1  0.46247188  0.49024735  0.93076958  1
  F  F43  1  1.53752812  -0.00975265  1.56923042  1
  F  F44  1  2.00975265  1.06923042  -0.03752812  1
  F  F45  1  1.50975265  0.43076958  2.03752812  1
  F  F46  1  -0.00975265  1.56923042  1.53752812  1
  F  F47  1  0.49024735  0.93076958  0.46247188  1
  Li  Li48  1  0.87500000  0.87500000  0.87500000  1
  Li  Li49  1  0.62500000  0.12500000  0.37500000  1
  Li  Li50  1  0.12500000  0.37500000  0.62500000  1
  Li  Li51  1  0.37500000  0.62500000  0.12500000  1
  Li  Li52  1  0.37500000  0.37500000  0.37500000  1
  Li  Li53  1  0.12500000  0.62500000  0.87500000  1
  Li  Li54  1  0.62500000  0.87500000  0.12500000  1
  Li  Li55  1  0.87500000  0.12500000  0.62500000  1
  Li  Li56  1  0.57995434  0.88266424  0.45223402  1
  Li  Li57  1  0.92004566  0.11733576  0.95223402  1
  Li  Li58  1  0.42004566  0.38266424  0.04776598  1
  Li  Li59  1  0.07995434  0.61733576  0.54776598  1
  Li  Li60  1  0.45223402  0.57995434  0.88266424  1
  Li  Li61  1  0.95223402  0.92004566  0.11733576  1
  Li  Li62  1  0.04776598  0.42004566  0.38266424  1
  Li  Li63  1  0.54776598  0.07995434  0.61733576  1
  Li  Li64  1  0.88266424  0.45223402  0.57995434  1
  Li  Li65  1  0.11733576  0.95223402  0.92004566  1
  Li  Li66  1  0.38266424  0.04776598  0.42004566  1
  Li  Li67  1  0.61733576  0.54776598  0.07995434  1
  Li  Li68  1  0.63266424  0.82995434  0.79776598  1
  Li  Li69  1  0.86733576  0.17004566  0.29776598  1
  Li  Li70  1  0.13266424  0.67004566  0.20223402  1
  Li  Li71  1  0.36733576  0.32995434  0.70223402  1
  Li  Li72  1  0.32995434  0.70223402  0.36733576  1
  Li  Li73  1  0.67004566  0.20223402  0.13266424  1
  Li  Li74  1  0.17004566  0.29776598  0.86733576  1
  Li  Li75  1  0.82995434  0.79776598  0.63266424  1
  Li  Li76  1  0.20223402  0.13266424  0.67004566  1
  Li  Li77  1  0.70223402  0.36733576  0.32995434  1
  Li  Li78  1  0.79776598  0.63266424  0.82995434  1
  Li  Li79  1  0.29776598  0.86733576  0.17004566  1
  Li  Li80  1  0.07995434  0.38266424  0.95223402  1
  Li  Li81  1  0.42004566  0.61733576  0.45223402  1
  Li  Li82  1  0.92004566  0.88266424  0.54776598  1
  Li  Li83  1  0.57995434  0.11733576  0.04776598  1
  Li  Li84  1  0.95223402  0.07995434  0.38266424  1
  Li  Li85  1  0.45223402  0.42004566  0.61733576  1
  Li  Li86  1  0.54776598  0.92004566  0.88266424  1
  Li  Li87  1  0.04776598  0.57995434  0.11733576  1
  Li  Li88  1  0.38266424  0.95223402  0.07995434  1
  Li  Li89  1  0.61733576  0.45223402  0.42004566  1
  Li  Li90  1  0.88266424  0.54776598  0.92004566  1
  Li  Li91  1  0.11733576  0.04776598  0.57995434  1
  Li  Li92  1  0.13266424  0.32995434  0.29776598  1
  Li  Li93  1  0.36733576  0.67004566  0.79776598  1
  Li  Li94  1  0.63266424  0.17004566  0.70223402  1
  Li  Li95  1  0.86733576  0.82995434  0.20223402  1
  Li  Li96  1  0.82995434  0.20223402  0.86733576  1
  Li  Li97  1  0.17004566  0.70223402  0.63266424  1
  Li  Li98  1  0.67004566  0.79776598  0.36733576  1
  Li  Li99  1  0.32995434  0.29776598  0.13266424  1
  Li  Li100  1  0.70223402  0.63266424  0.17004566  1
  Li  Li101  1  0.20223402  0.86733576  0.82995434  1
  Li  Li102  1  0.29776598  0.13266424  0.32995434  1
  Li  Li103  1  0.79776598  0.36733576  0.67004566  1
  Li  Li104  1  0.52756703  0.00000000  0.25000000  1
  Li  Li105  1  0.97243297  0.00000000  0.75000000  1
  Li  Li106  1  0.25000000  0.52756703  0.00000000  1
  Li  Li107  1  0.75000000  0.97243297  0.00000000  1
  Li  Li108  1  0.00000000  0.25000000  0.52756703  1
  Li  Li109  1  0.00000000  0.75000000  0.97243297  1
  Li  Li110  1  0.75000000  0.77756703  0.00000000  1
  Li  Li111  1  0.75000000  0.22243297  0.50000000  1
  Li  Li112  1  0.27756703  0.50000000  0.25000000  1
  Li  Li113  1  0.72243297  -0.00000000  0.25000000  1
  Li  Li114  1  0.00000000  0.25000000  0.72243297  1
  Li  Li115  1  0.50000000  0.25000000  0.27756703  1
  Li  Li116  1  0.02756703  0.50000000  0.75000000  1
  Li  Li117  1  0.47243297  0.50000000  0.25000000  1
  Li  Li118  1  0.75000000  0.02756703  0.50000000  1
  Li  Li119  1  0.25000000  0.47243297  0.50000000  1
  Li  Li120  1  0.50000000  0.75000000  0.02756703  1
  Li  Li121  1  0.50000000  0.25000000  0.47243297  1
  Li  Li122  1  0.25000000  0.27756703  0.50000000  1
  Li  Li123  1  0.25000000  0.72243297  0.00000000  1
  Li  Li124  1  0.77756703  0.00000000  0.75000000  1
  Li  Li125  1  0.22243297  0.50000000  0.75000000  1
  Li  Li126  1  0.50000000  0.75000000  0.22243297  1
  Li  Li127  1  0.00000000  0.75000000  0.77756703  1
  Li  Li128  1  0.53483412  0.53483412  0.53483412  1
  Li  Li129  1  0.96516588  0.46516588  0.03483412  1
  Li  Li130  1  0.46516588  0.03483412  0.96516588  1
  Li  Li131  1  0.03483412  0.96516588  0.46516588  1
  Li  Li132  1  0.28483412  0.78483412  0.71516588  1
  Li  Li133  1  0.21516588  0.21516588  0.21516588  1
  Li  Li134  1  0.78483412  0.71516588  0.28483412  1
  Li  Li135  1  0.71516588  0.28483412  0.78483412  1
  Li  Li136  1  0.03483412  0.03483412  0.03483412  1
  Li  Li137  1  0.46516588  0.96516588  0.53483412  1
  Li  Li138  1  0.96516588  0.53483412  0.46516588  1
  Li  Li139  1  0.53483412  0.46516588  0.96516588  1
  Li  Li140  1  0.78483412  0.28483412  0.21516588  1
  Li  Li141  1  0.71516588  0.71516588  0.71516588  1
  Li  Li142  1  0.28483412  0.21516588  0.78483412  1
  Li  Li143  1  0.21516588  0.78483412  0.28483412  1
  Te  Te144  1  0.12500000  0.06584621  0.18415379  1
  Te  Te145  1  0.37500000  0.93415379  0.68415379  1
  Te  Te146  1  0.87500000  0.56584621  0.31584621  1
  Te  Te147  1  0.62500000  0.43415379  0.81584621  1
  Te  Te148  1  0.18415379  0.12500000  0.06584621  1
  Te  Te149  1  0.68415379  0.37500000  0.93415379  1
  Te  Te150  1  0.31584621  0.87500000  0.56584621  1
  Te  Te151  1  0.81584621  0.62500000  0.43415379  1
  Te  Te152  1  0.06584621  0.18415379  0.12500000  1
  Te  Te153  1  0.93415379  0.68415379  0.37500000  1
  Te  Te154  1  0.56584621  0.31584621  0.87500000  1
  Te  Te155  1  0.43415379  0.81584621  0.62500000  1
  Te  Te156  1  0.62500000  0.56584621  0.68415379  1
  Te  Te157  1  0.87500000  0.43415379  0.18415379  1
  Te  Te158  1  0.37500000  0.06584621  0.81584621  1
  Te  Te159  1  0.12500000  0.93415379  0.31584621  1
  Te  Te160  1  0.68415379  0.62500000  0.56584621  1
  Te  Te161  1  0.18415379  0.87500000  0.43415379  1
  Te  Te162  1  0.81584621  0.37500000  0.06584621  1
  Te  Te163  1  0.31584621  0.12500000  0.93415379  1
  Te  Te164  1  0.56584621  0.68415379  0.62500000  1
  Te  Te165  1  0.43415379  0.18415379  0.87500000  1
  Te  Te166  1  0.06584621  0.81584621  0.37500000  1
  Te  Te167  1  0.93415379  0.31584621  0.12500000  1
