# generated using pymatgen
data_LiF
_symmetry_space_group_name_H-M   'P 1'
_cell_length_a   13.48044644
_cell_length_b   13.48044644
_cell_length_c   5.79315879
_cell_angle_alpha   90.00000000
_cell_angle_beta   90.00000000
_cell_angle_gamma   120.00000000
_symmetry_Int_Tables_number   1
_chemical_formula_structural   LiF
_chemical_formula_sum   'Li24 F24'
_cell_volume   911.70558296
_cell_formula_units_Z   24
loop_
 _symmetry_equiv_pos_site_id
 _symmetry_equiv_pos_as_xyz
  1  'x, y, z'
loop_
 _atom_site_type_symbol
 _atom_site_label
 _atom_site_symmetry_multiplicity
 _atom_site_fract_x
 _atom_site_fract_y
 _atom_site_fract_z
 _atom_site_occupancy
  F  F0  1  0.99403581  0.30507068  0.77306668  1
  F  F1  1  0.69492932  0.68896512  0.77306668  1
  F  F2  1  0.31103488  0.00596419  0.77306668  1
  F  F3  1  0.69492932  0.00596419  0.22693332  1
  F  F4  1  0.31103488  0.30507068  0.22693332  1
  F  F5  1  0.99403581  0.68896512  0.22693332  1
  F  F6  1  0.97240549  0.61303985  0.32293043  1
  F  F7  1  0.38696015  0.35936564  0.32293043  1
  F  F8  1  0.64063436  0.02759451  0.32293043  1
  F  F9  1  0.38696015  0.02759451  0.67706957  1
  F  F10  1  0.64063436  0.61303985  0.67706957  1
  F  F11  1  0.97240549  0.35936564  0.67706957  1
  F  F12  1  0.20972138  0.79027862  0.50000000  1
  F  F13  1  0.20972138  0.41944277  0.50000000  1
  F  F14  1  0.58055723  0.79027862  0.50000000  1
  F  F15  1  0.93599370  0.22601030  0.70244561  1
  F  F16  1  0.77398970  0.70998340  0.70244561  1
  F  F17  1  0.29001660  0.06400630  0.70244561  1
  F  F18  1  0.77398970  0.06400630  0.29755439  1
  F  F19  1  0.29001660  0.22601030  0.29755439  1
  F  F20  1  0.93599370  0.70998340  0.29755439  1
  F  F21  1  0.12285590  0.87714410  0.00000000  1
  F  F22  1  0.12285590  0.24571179  0.00000000  1
  F  F23  1  0.75428821  0.87714410  0.00000000  1
  Li  Li24  1  0.66847116  0.65177631  0.07194176  1
  Li  Li25  1  -0.65177631  0.01669484  0.07194176  1
  Li  Li26  1  -0.01669484  -0.66847116  0.07194176  1
  Li  Li27  1  -0.65177631  -0.66847116  -0.07194176  1
  Li  Li28  1  -0.01669484  0.65177631  -0.07194176  1
  Li  Li29  1  0.66847116  0.01669484  -0.07194176  1
  Li  Li30  1  0.00000000  0.00000000  0.84179548  1
  Li  Li31  1  0.00000000  0.00000000  0.15820452  1
  Li  Li32  1  0.18352919  0.14745698  0.19843044  1
  Li  Li33  1  0.85254302  0.03607221  0.19843044  1
  Li  Li34  1  0.96392779  0.81647081  0.19843044  1
  Li  Li35  1  0.85254302  0.81647081  0.80156956  1
  Li  Li36  1  0.96392779  0.14745698  0.80156956  1
  Li  Li37  1  0.18352919  0.03607221  0.80156956  1
  Li  Li38  1  0.66666667  0.33333333  0.15379407  1
  Li  Li39  1  0.66666667  0.33333333  0.84620593  1
  Li  Li40  1  0.31408669  0.93960602  0.67655720  1
  Li  Li41  1  0.06039398  0.37448067  0.67655720  1
  Li  Li42  1  0.62551933  0.68591331  0.67655720  1
  Li  Li43  1  0.06039398  0.68591331  0.32344280  1
  Li  Li44  1  0.62551933  0.93960602  0.32344280  1
  Li  Li45  1  0.31408669  0.37448067  0.32344280  1
  Li  Li46  1  0.33333333  0.66666667  0.50000000  1
  Li  Li47  1  0.66666667  0.33333333  0.50000000  1
