# generated using pymatgen
data_LiF
_symmetry_space_group_name_H-M   'P 1'
_cell_length_a   11.64889636
_cell_length_b   11.64889636
_cell_length_c   13.44723007
_cell_angle_alpha   90.00000000
_cell_angle_beta   90.00000000
_cell_angle_gamma   120.00000000
_symmetry_Int_Tables_number   1
_chemical_formula_structural   LiF
_chemical_formula_sum   'Li48 F48'
_cell_volume   1580.27631078
_cell_formula_units_Z   48
loop_
 _symmetry_equiv_pos_site_id
 _symmetry_equiv_pos_as_xyz
  1  'x, y, z'
loop_
 _atom_site_type_symbol
 _atom_site_label
 _atom_site_symmetry_multiplicity
 _atom_site_fract_x
 _atom_site_fract_y
 _atom_site_fract_z
 _atom_site_occupancy
  F  F0  1  0.68789111  0.92481661  0.03159504  1
  F  F1  1  0.07518339  0.76307450  0.03159504  1
  F  F2  1  0.23692550  0.31210889  0.03159504  1
  F  F3  1  0.92481661  0.68789111  0.46840496  1
  F  F4  1  0.76307450  0.07518339  0.46840496  1
  F  F5  1  0.31210889  0.23692550  0.46840496  1
  F  F6  1  0.31210889  0.07518339  0.96840496  1
  F  F7  1  0.92481661  0.23692550  0.96840496  1
  F  F8  1  0.76307450  0.68789111  0.96840496  1
  F  F9  1  0.07518339  0.31210889  0.53159504  1
  F  F10  1  0.23692550  0.92481661  0.53159504  1
  F  F11  1  0.68789111  0.76307450  0.53159504  1
  F  F12  1  0.35455778  0.25814994  0.36492837  1
  F  F13  1  0.74185006  0.09640784  0.36492837  1
  F  F14  1  0.90359216  0.64544222  0.36492837  1
  F  F15  1  0.59148327  0.02122444  0.80173829  1
  F  F16  1  0.42974117  0.40851673  0.80173829  1
  F  F17  1  0.97877556  0.57025883  0.80173829  1
  F  F18  1  0.97877556  0.40851673  0.30173829  1
  F  F19  1  0.59148327  0.57025883  0.30173829  1
  F  F20  1  0.42974117  0.02122444  0.30173829  1
  F  F21  1  0.74185006  0.64544222  0.86492837  1
  F  F22  1  0.90359216  0.25814994  0.86492837  1
  F  F23  1  0.35455778  0.09640784  0.86492837  1
  F  F24  1  0.02122444  0.59148327  0.69826171  1
  F  F25  1  0.40851673  0.42974117  0.69826171  1
  F  F26  1  0.57025883  0.97877556  0.69826171  1
  F  F27  1  0.25814994  0.35455778  0.13507163  1
  F  F28  1  0.09640784  0.74185006  0.13507163  1
  F  F29  1  0.64544222  0.90359216  0.13507163  1
  F  F30  1  0.64544222  0.74185006  0.63507163  1
  F  F31  1  0.25814994  0.90359216  0.63507163  1
  F  F32  1  0.09640784  0.35455778  0.63507163  1
  F  F33  1  0.40851673  0.97877556  0.19826171  1
  F  F34  1  0.57025883  0.59148327  0.19826171  1
  F  F35  1  0.02122444  0.42974117  0.19826171  1
  F  F36  1  0.00000000  0.00000000  0.25000000  1
  F  F37  1  0.00000000  0.00000000  0.75000000  1
  F  F38  1  0.66666667  0.33333333  0.58333333  1
  F  F39  1  0.66666667  0.33333333  0.08333333  1
  F  F40  1  0.33333333  0.66666667  0.91666667  1
  F  F41  1  0.33333333  0.66666667  0.41666667  1
  F  F42  1  0.00000000  0.00000000  0.00000000  1
  F  F43  1  0.00000000  0.00000000  0.50000000  1
  F  F44  1  0.66666667  0.33333333  0.33333333  1
  F  F45  1  0.66666667  0.33333333  0.83333333  1
  F  F46  1  0.33333333  0.66666667  0.66666667  1
  F  F47  1  0.33333333  0.66666667  0.16666667  1
  Li  Li48  1  0.25045220  0.16740317  0.61791204  1
  Li  Li49  1  -0.16740317  0.08304903  0.61791204  1
  Li  Li50  1  -0.08304903  -0.25045220  0.61791204  1
  Li  Li51  1  0.16740317  0.25045220  -0.11791204  1
  Li  Li52  1  0.08304903  -0.16740317  -0.11791204  1
  Li  Li53  1  -0.25045220  -0.08304903  -0.11791204  1
  Li  Li54  1  -0.25045220  -0.16740317  -0.61791204  1
  Li  Li55  1  0.16740317  -0.08304903  -0.61791204  1
  Li  Li56  1  0.08304903  0.25045220  -0.61791204  1
  Li  Li57  1  -0.16740317  -0.25045220  1.11791204  1
  Li  Li58  1  -0.08304903  0.16740317  1.11791204  1
  Li  Li59  1  0.25045220  0.08304903  1.11791204  1
  Li  Li60  1  0.91711887  0.50073651  0.95124538  1
  Li  Li61  1  0.49926349  0.41638236  0.95124538  1
  Li  Li62  1  0.58361764  0.08288113  0.95124538  1
  Li  Li63  1  0.83406984  0.58378554  0.21542129  1
  Li  Li64  1  0.74971570  0.16593016  0.21542129  1
  Li  Li65  1  0.41621446  0.25028430  0.21542129  1
  Li  Li66  1  0.41621446  0.16593016  -0.28457871  1
  Li  Li67  1  0.83406984  0.25028430  -0.28457871  1
  Li  Li68  1  0.74971570  0.58378554  -0.28457871  1
  Li  Li69  1  0.49926349  0.08288113  1.45124538  1
  Li  Li70  1  0.58361764  0.50073651  1.45124538  1
  Li  Li71  1  0.91711887  0.41638236  1.45124538  1
  Li  Li72  1  0.58378554  0.83406984  1.28457871  1
  Li  Li73  1  0.16593016  0.74971570  1.28457871  1
  Li  Li74  1  0.25028430  0.41621446  1.28457871  1
  Li  Li75  1  0.50073651  0.91711887  0.54875462  1
  Li  Li76  1  0.41638236  0.49926349  0.54875462  1
  Li  Li77  1  0.08288113  0.58361764  0.54875462  1
  Li  Li78  1  0.08288113  0.49926349  0.04875462  1
  Li  Li79  1  0.50073651  0.58361764  0.04875462  1
  Li  Li80  1  0.41638236  0.91711887  0.04875462  1
  Li  Li81  1  0.16593016  0.41621446  1.78457871  1
  Li  Li82  1  0.25028430  0.83406984  1.78457871  1
  Li  Li83  1  0.58378554  0.74971570  1.78457871  1
  Li  Li84  1  0.00000000  0.00000000  0.36322317  1
  Li  Li85  1  0.00000000  0.00000000  0.13677683  1
  Li  Li86  1  0.00000000  0.00000000  0.63677683  1
  Li  Li87  1  0.00000000  0.00000000  0.86322317  1
  Li  Li88  1  0.66666667  0.33333333  0.69655650  1
  Li  Li89  1  0.66666667  0.33333333  0.47011017  1
  Li  Li90  1  0.66666667  0.33333333  0.97011017  1
  Li  Li91  1  0.66666667  0.33333333  0.19655650  1
  Li  Li92  1  0.33333333  0.66666667  0.02988983  1
  Li  Li93  1  0.33333333  0.66666667  0.80344350  1
  Li  Li94  1  0.33333333  0.66666667  0.30344350  1
  Li  Li95  1  0.33333333  0.66666667  0.52988983  1
