# generated using pymatgen
data_Li2Y2As4P2Se
_symmetry_space_group_name_H-M   'P 1'
_cell_length_a   5.25836913
_cell_length_b   5.54760001
_cell_length_c   7.01611453
_cell_angle_alpha   93.85637384
_cell_angle_beta   97.98724146
_cell_angle_gamma   104.79355020
_symmetry_Int_Tables_number   1
_chemical_formula_structural   Li2Y2As4P2Se
_chemical_formula_sum   'Li2 Y2 As4 P2 Se1'
_cell_volume   194.83401863
_cell_formula_units_Z   1
loop_
 _symmetry_equiv_pos_site_id
 _symmetry_equiv_pos_as_xyz
  1  'x, y, z'
loop_
 _atom_site_type_symbol
 _atom_site_label
 _atom_site_symmetry_multiplicity
 _atom_site_fract_x
 _atom_site_fract_y
 _atom_site_fract_z
 _atom_site_occupancy
  Se  Se0  1  0.00000000  0.00000000  0.00000000  1
  P  P1  1  0.50000000  0.50000000  0.50000000  1
  P  P2  1  0.25000000  0.25000000  0.25000000  1
  As  As3  1  0.75000000  0.25000000  0.00000000  1
  As  As4  1  0.25000000  0.75000000  0.50000000  1
  As  As5  1  0.67157296  0.26447779  0.80743799  1
  As  As6  1  0.33108689  0.87552092  0.32071704  1
  Li  Li7  1  0.01252128  0.74219023  0.16528427  1
  Li  Li8  1  0.31243059  0.04737246  0.95993995  1
  Y  Y9  1  0.67196288  0.44196621  0.23116272  1
  Y  Y10  1  0.91552799  0.61295892  0.37527526  1
