# generated using pymatgen
data_LiF
_symmetry_space_group_name_H-M   'P 1'
_cell_length_a   11.50441802
_cell_length_b   5.84846193
_cell_length_c   8.58695129
_cell_angle_alpha   90.00000000
_cell_angle_beta   90.00000000
_cell_angle_gamma   90.00000000
_symmetry_Int_Tables_number   1
_chemical_formula_structural   LiF
_chemical_formula_sum   'Li20 F20'
_cell_volume   577.75713840
_cell_formula_units_Z   20
loop_
 _symmetry_equiv_pos_site_id
 _symmetry_equiv_pos_as_xyz
  1  'x, y, z'
loop_
 _atom_site_type_symbol
 _atom_site_label
 _atom_site_symmetry_multiplicity
 _atom_site_fract_x
 _atom_site_fract_y
 _atom_site_fract_z
 _atom_site_occupancy
  F  F0  1  0.99303806  0.02281094  0.12656618  1
  F  F1  1  0.50696194  0.97718906  0.62656618  1
  F  F2  1  0.00696194  0.52281094  0.87343382  1
  F  F3  1  0.49303806  0.47718906  0.37343382  1
  F  F4  1  0.00696194  0.97718906  0.87343382  1
  F  F5  1  0.49303806  0.02281094  0.37343382  1
  F  F6  1  0.99303806  0.47718906  0.12656618  1
  F  F7  1  0.50696194  0.52281094  0.62656618  1
  F  F8  1  0.23659166  0.00270655  0.64670047  1
  F  F9  1  0.26340834  0.99729345  0.14670047  1
  F  F10  1  0.76340834  0.50270655  0.35329953  1
  F  F11  1  0.73659166  0.49729345  0.85329953  1
  F  F12  1  0.76340834  0.99729345  0.35329953  1
  F  F13  1  0.73659166  0.00270655  0.85329953  1
  F  F14  1  0.23659166  0.49729345  0.64670047  1
  F  F15  1  0.26340834  0.50270655  0.14670047  1
  F  F16  1  0.92408294  0.25000000  0.26924250  1
  F  F17  1  0.57591706  0.75000000  0.76924250  1
  F  F18  1  0.07591706  0.75000000  0.73075750  1
  F  F19  1  0.42408294  0.25000000  0.23075750  1
  Li  Li20  1  0.00000000  0.00000000  0.00000000  1
  Li  Li21  1  0.50000000  0.00000000  0.50000000  1
  Li  Li22  1  0.00000000  0.50000000  0.00000000  1
  Li  Li23  1  0.50000000  0.50000000  0.50000000  1
  Li  Li24  1  0.87705642  0.25000000  0.68147306  1
  Li  Li25  1  0.62294358  0.75000000  0.18147306  1
  Li  Li26  1  0.12294358  0.75000000  0.31852694  1
  Li  Li27  1  0.37705642  0.25000000  0.81852694  1
  Li  Li28  1  0.00000000  0.00000000  0.50000000  1
  Li  Li29  1  0.50000000  0.00000000  0.00000000  1
  Li  Li30  1  0.00000000  0.50000000  0.50000000  1
  Li  Li31  1  0.50000000  0.50000000  0.00000000  1
  Li  Li32  1  0.14520702  0.86195047  0.63257891  1
  Li  Li33  1  0.35479298  -0.86195047  1.13257891  1
  Li  Li34  1  -0.14520702  1.36195047  -0.63257891  1
  Li  Li35  1  0.64520702  -0.36195047  -0.13257891  1
  Li  Li36  1  -0.14520702  -0.86195047  -0.63257891  1
  Li  Li37  1  0.64520702  0.86195047  -0.13257891  1
  Li  Li38  1  0.14520702  -0.36195047  0.63257891  1
  Li  Li39  1  0.35479298  1.36195047  1.13257891  1
