# generated using pymatgen
data_LiF
_symmetry_space_group_name_H-M   'P 1'
_cell_length_a   8.81406867
_cell_length_b   9.82754549
_cell_length_c   7.13608247
_cell_angle_alpha   90.00000000
_cell_angle_beta   90.00000000
_cell_angle_gamma   90.00000000
_symmetry_Int_Tables_number   1
_chemical_formula_structural   LiF
_chemical_formula_sum   'Li24 F24'
_cell_volume   618.13217947
_cell_formula_units_Z   24
loop_
 _symmetry_equiv_pos_site_id
 _symmetry_equiv_pos_as_xyz
  1  'x, y, z'
loop_
 _atom_site_type_symbol
 _atom_site_label
 _atom_site_symmetry_multiplicity
 _atom_site_fract_x
 _atom_site_fract_y
 _atom_site_fract_z
 _atom_site_occupancy
  F  F0  1  0.00000000  0.00000000  0.50000000  1
  F  F1  1  0.50000000  0.00000000  0.00000000  1
  F  F2  1  0.00000000  0.50000000  0.50000000  1
  F  F3  1  0.50000000  0.50000000  0.00000000  1
  F  F4  1  0.37555447  0.25000000  0.05990958  1
  F  F5  1  0.12444553  0.75000000  0.55990958  1
  F  F6  1  0.62444553  0.75000000  0.94009042  1
  F  F7  1  0.87555447  0.25000000  0.44009042  1
  F  F8  1  0.42894912  0.94272836  0.26154851  1
  F  F9  1  0.07105088  0.05727164  0.76154851  1
  F  F10  1  0.57105088  0.44272836  0.73845149  1
  F  F11  1  0.92894912  0.55727164  0.23845149  1
  F  F12  1  0.57105088  0.05727164  0.73845149  1
  F  F13  1  0.92894912  0.94272836  0.23845149  1
  F  F14  1  0.42894912  0.55727164  0.26154851  1
  F  F15  1  0.07105088  0.44272836  0.76154851  1
  F  F16  1  0.02704012  0.94117282  0.84696094  1
  F  F17  1  0.47295988  0.05882718  0.34696094  1
  F  F18  1  0.97295988  0.44117282  0.15303906  1
  F  F19  1  0.52704012  0.55882718  0.65303906  1
  F  F20  1  0.97295988  0.05882718  0.15303906  1
  F  F21  1  0.52704012  0.94117282  0.65303906  1
  F  F22  1  0.02704012  0.55882718  0.84696094  1
  F  F23  1  0.47295988  0.44117282  0.34696094  1
  Li  Li24  1  0.08018537  0.86477827  0.79117215  1
  Li  Li25  1  0.41981463  -0.86477827  1.29117215  1
  Li  Li26  1  -0.08018537  1.36477827  -0.79117215  1
  Li  Li27  1  0.58018537  -0.36477827  -0.29117215  1
  Li  Li28  1  -0.08018537  -0.86477827  -0.79117215  1
  Li  Li29  1  0.58018537  0.86477827  -0.29117215  1
  Li  Li30  1  0.08018537  -0.36477827  0.79117215  1
  Li  Li31  1  0.41981463  1.36477827  1.29117215  1
  Li  Li32  1  0.44390698  0.25000000  0.41437089  1
  Li  Li33  1  0.05609302  0.75000000  0.91437089  1
  Li  Li34  1  0.55609302  0.75000000  0.58562911  1
  Li  Li35  1  0.94390698  0.25000000  0.08562911  1
  Li  Li36  1  0.24624816  0.25000000  0.90903221  1
  Li  Li37  1  0.25375184  0.75000000  0.40903221  1
  Li  Li38  1  0.75375184  0.75000000  0.09096779  1
  Li  Li39  1  0.74624816  0.25000000  0.59096779  1
  Li  Li40  1  0.53845944  0.25000000  0.94736907  1
  Li  Li41  1  0.96154056  0.75000000  0.44736907  1
  Li  Li42  1  0.46154056  0.75000000  0.05263093  1
  Li  Li43  1  0.03845944  0.25000000  0.55263093  1
  Li  Li44  1  0.00000000  0.00000000  0.00000000  1
  Li  Li45  1  0.50000000  0.00000000  0.50000000  1
  Li  Li46  1  0.00000000  0.50000000  0.00000000  1
  Li  Li47  1  0.50000000  0.50000000  0.50000000  1
