# generated using pymatgen
data_LiF
_symmetry_space_group_name_H-M   'P 1'
_cell_length_a   10.04475564
_cell_length_b   10.04475564
_cell_length_c   9.82950631
_cell_angle_alpha   90.00000000
_cell_angle_beta   90.00000000
_cell_angle_gamma   120.00000000
_symmetry_Int_Tables_number   1
_chemical_formula_structural   LiF
_chemical_formula_sum   'Li36 F36'
_cell_volume   858.89700770
_cell_formula_units_Z   36
loop_
 _symmetry_equiv_pos_site_id
 _symmetry_equiv_pos_as_xyz
  1  'x, y, z'
loop_
 _atom_site_type_symbol
 _atom_site_label
 _atom_site_symmetry_multiplicity
 _atom_site_fract_x
 _atom_site_fract_y
 _atom_site_fract_z
 _atom_site_occupancy
  F  F0  1  0.04094458  0.00000000  0.25000000  1
  F  F1  1  0.00000000  0.04094458  0.25000000  1
  F  F2  1  0.95905542  0.95905542  0.25000000  1
  F  F3  1  0.95905542  0.00000000  0.75000000  1
  F  F4  1  0.00000000  0.95905542  0.75000000  1
  F  F5  1  0.04094458  0.04094458  0.75000000  1
  F  F6  1  0.70761124  0.33333333  0.58333333  1
  F  F7  1  0.66666667  0.37427791  0.58333333  1
  F  F8  1  0.62572209  0.29238876  0.58333333  1
  F  F9  1  0.62572209  0.33333333  0.08333333  1
  F  F10  1  0.66666667  0.29238876  0.08333333  1
  F  F11  1  0.70761124  0.37427791  0.08333333  1
  F  F12  1  0.37427791  0.66666667  0.91666667  1
  F  F13  1  0.33333333  0.70761124  0.91666667  1
  F  F14  1  0.29238876  0.62572209  0.91666667  1
  F  F15  1  0.29238876  0.66666667  0.41666667  1
  F  F16  1  0.33333333  0.62572209  0.41666667  1
  F  F17  1  0.37427791  0.70761124  0.41666667  1
  F  F18  1  0.41725561  -0.00000000  0.25000000  1
  F  F19  1  0.00000000  0.41725561  0.25000000  1
  F  F20  1  0.58274439  0.58274439  0.25000000  1
  F  F21  1  0.58274439  0.00000000  0.75000000  1
  F  F22  1  0.00000000  0.58274439  0.75000000  1
  F  F23  1  0.41725561  0.41725561  0.75000000  1
  F  F24  1  0.08392228  0.33333333  0.58333333  1
  F  F25  1  0.66666667  0.75058895  0.58333333  1
  F  F26  1  0.24941105  0.91607772  0.58333333  1
  F  F27  1  0.24941105  0.33333333  0.08333333  1
  F  F28  1  0.66666667  0.91607772  0.08333333  1
  F  F29  1  0.08392228  0.75058895  0.08333333  1
  F  F30  1  0.75058895  0.66666667  0.91666667  1
  F  F31  1  0.33333333  0.08392228  0.91666667  1
  F  F32  1  0.91607772  0.24941105  0.91666667  1
  F  F33  1  0.91607772  0.66666667  0.41666667  1
  F  F34  1  0.33333333  0.24941105  0.41666667  1
  F  F35  1  0.75058895  0.08392228  0.41666667  1
  Li  Li36  1  0.07241446  0.95575285  0.42593376  1
  Li  Li37  1  -0.95575285  -0.88333839  0.42593376  1
  Li  Li38  1  0.88333839  -0.07241446  0.42593376  1
  Li  Li39  1  0.95575285  0.07241446  0.07406624  1
  Li  Li40  1  -0.88333839  -0.95575285  0.07406624  1
  Li  Li41  1  -0.07241446  0.88333839  0.07406624  1
  Li  Li42  1  -0.07241446  -0.95575285  -0.42593376  1
  Li  Li43  1  0.95575285  0.88333839  -0.42593376  1
  Li  Li44  1  -0.88333839  0.07241446  -0.42593376  1
  Li  Li45  1  -0.95575285  -0.07241446  0.92593376  1
  Li  Li46  1  0.88333839  0.95575285  0.92593376  1
  Li  Li47  1  0.07241446  -0.88333839  0.92593376  1
  Li  Li48  1  0.73908112  1.28908618  0.75926709  1
  Li  Li49  1  -0.28908618  -0.55000506  0.75926709  1
  Li  Li50  1  1.55000506  0.26091888  0.75926709  1
  Li  Li51  1  1.62241951  0.40574779  0.40739958  1
  Li  Li52  1  -0.21667172  -0.62241951  0.40739958  1
  Li  Li53  1  0.59425221  1.21667172  0.40739958  1
  Li  Li54  1  0.59425221  -0.62241951  -0.09260042  1
  Li  Li55  1  1.62241951  1.21667172  -0.09260042  1
  Li  Li56  1  -0.21667172  0.40574779  -0.09260042  1
  Li  Li57  1  -0.28908618  0.26091888  1.25926709  1
  Li  Li58  1  1.55000506  1.28908618  1.25926709  1
  Li  Li59  1  0.73908112  -0.55000506  1.25926709  1
  Li  Li60  1  0.40574779  1.62241951  1.09260042  1
  Li  Li61  1  -0.62241951  -0.21667172  1.09260042  1
  Li  Li62  1  1.21667172  0.59425221  1.09260042  1
  Li  Li63  1  1.28908618  0.73908112  0.74073291  1
  Li  Li64  1  -0.55000506  -0.28908618  0.74073291  1
  Li  Li65  1  0.26091888  1.55000506  0.74073291  1
  Li  Li66  1  0.26091888  -0.28908618  0.24073291  1
  Li  Li67  1  1.28908618  1.55000506  0.24073291  1
  Li  Li68  1  -0.55000506  0.73908112  0.24073291  1
  Li  Li69  1  -0.62241951  0.59425221  1.59260042  1
  Li  Li70  1  1.21667172  1.62241951  1.59260042  1
  Li  Li71  1  0.40574779  -0.21667172  1.59260042  1
