# generated using pymatgen
data_LiF
_symmetry_space_group_name_H-M   'P 1'
_cell_length_a   5.62545676
_cell_length_b   5.62545676
_cell_length_c   8.25916480
_cell_angle_alpha   90.00000000
_cell_angle_beta   90.00000000
_cell_angle_gamma   120.00000000
_symmetry_Int_Tables_number   1
_chemical_formula_structural   LiF
_chemical_formula_sum   'Li12 F12'
_cell_volume   226.35096209
_cell_formula_units_Z   12
loop_
 _symmetry_equiv_pos_site_id
 _symmetry_equiv_pos_as_xyz
  1  'x, y, z'
loop_
 _atom_site_type_symbol
 _atom_site_label
 _atom_site_symmetry_multiplicity
 _atom_site_fract_x
 _atom_site_fract_y
 _atom_site_fract_z
 _atom_site_occupancy
  F  F0  1  0.77798312  0.22201688  0.00000000  1
  F  F1  1  0.77798312  0.55596624  0.00000000  1
  F  F2  1  0.44403376  0.22201688  -0.00000000  1
  F  F3  1  0.00000000  0.00000000  0.50000000  1
  F  F4  1  0.32927047  0.06677747  0.76292435  1
  F  F5  1  0.93322253  0.26249299  0.76292435  1
  F  F6  1  0.73750701  0.67072953  0.76292435  1
  F  F7  1  0.93322253  0.67072953  0.23707565  1
  F  F8  1  0.73750701  0.06677747  0.23707565  1
  F  F9  1  0.32927047  0.26249299  0.23707565  1
  F  F10  1  0.33333333  0.66666667  0.11856316  1
  F  F11  1  0.33333333  0.66666667  0.88143684  1
  Li  Li12  1  0.66666667  0.33333333  0.50000000  1
  Li  Li13  1  0.59692608  0.04464747  0.38787944  1
  Li  Li14  1  -0.04464747  0.55227862  0.38787944  1
  Li  Li15  1  -0.55227862  -0.59692608  0.38787944  1
  Li  Li16  1  -0.04464747  -0.59692608  -0.38787944  1
  Li  Li17  1  -0.55227862  0.04464747  -0.38787944  1
  Li  Li18  1  0.59692608  0.55227862  -0.38787944  1
  Li  Li19  1  0.00000000  0.00000000  0.34970459  1
  Li  Li20  1  0.00000000  0.00000000  0.65029541  1
  Li  Li21  1  0.33333333  0.66666667  0.50000000  1
  Li  Li22  1  0.33333333  0.66666667  0.23078065  1
  Li  Li23  1  0.33333333  0.66666667  0.76921935  1
