# generated using pymatgen
data_LiF
_symmetry_space_group_name_H-M   'P 1'
_cell_length_a   5.02711856
_cell_length_b   5.02711856
_cell_length_c   12.33896304
_cell_angle_alpha   90.00000000
_cell_angle_beta   90.00000000
_cell_angle_gamma   120.00000000
_symmetry_Int_Tables_number   1
_chemical_formula_structural   LiF
_chemical_formula_sum   'Li14 F14'
_cell_volume   270.05209522
_cell_formula_units_Z   14
loop_
 _symmetry_equiv_pos_site_id
 _symmetry_equiv_pos_as_xyz
  1  'x, y, z'
loop_
 _atom_site_type_symbol
 _atom_site_label
 _atom_site_symmetry_multiplicity
 _atom_site_fract_x
 _atom_site_fract_y
 _atom_site_fract_z
 _atom_site_occupancy
  F  F0  1  0.45576719  0.15490933  0.40445348  1
  F  F1  1  0.84509067  0.30085786  0.40445348  1
  F  F2  1  0.69914214  0.54423281  0.40445348  1
  F  F3  1  0.84509067  0.54423281  0.59554652  1
  F  F4  1  0.69914214  0.15490933  0.59554652  1
  F  F5  1  0.45576719  0.30085786  0.59554652  1
  F  F6  1  0.67926114  0.95790948  0.75356784  1
  F  F7  1  0.04209052  0.72135166  0.75356784  1
  F  F8  1  0.27864834  0.32073886  0.75356784  1
  F  F9  1  0.04209052  0.32073886  0.24643216  1
  F  F10  1  0.27864834  0.95790948  0.24643216  1
  F  F11  1  0.67926114  0.72135166  0.24643216  1
  F  F12  1  0.00000000  0.00000000  0.00000000  1
  F  F13  1  0.00000000  0.00000000  0.50000000  1
  Li  Li14  1  0.52384216  0.72198162  0.90184649  1
  Li  Li15  1  -0.72198162  -0.19813946  0.90184649  1
  Li  Li16  1  0.19813946  -0.52384216  0.90184649  1
  Li  Li17  1  -0.72198162  -0.52384216  -0.90184649  1
  Li  Li18  1  0.19813946  0.72198162  -0.90184649  1
  Li  Li19  1  0.52384216  -0.19813946  -0.90184649  1
  Li  Li20  1  0.00000000  0.00000000  0.11988459  1
  Li  Li21  1  0.00000000  0.00000000  0.88011541  1
  Li  Li22  1  0.37471781  0.22427573  0.12942065  1
  Li  Li23  1  0.77572427  0.15044209  0.12942065  1
  Li  Li24  1  0.84955791  0.62528219  0.12942065  1
  Li  Li25  1  0.77572427  0.62528219  0.87057935  1
  Li  Li26  1  0.84955791  0.22427573  0.87057935  1
  Li  Li27  1  0.37471781  0.15044209  0.87057935  1
