# generated using pymatgen
data_LiF
_symmetry_space_group_name_H-M   'P 1'
_cell_length_a   5.33763386
_cell_length_b   11.27336648
_cell_length_c   8.61425274
_cell_angle_alpha   90.00000000
_cell_angle_beta   90.00000000
_cell_angle_gamma   90.00000000
_symmetry_Int_Tables_number   1
_chemical_formula_structural   LiF
_chemical_formula_sum   'Li20 F20'
_cell_volume   518.34631378
_cell_formula_units_Z   20
loop_
 _symmetry_equiv_pos_site_id
 _symmetry_equiv_pos_as_xyz
  1  'x, y, z'
loop_
 _atom_site_type_symbol
 _atom_site_label
 _atom_site_symmetry_multiplicity
 _atom_site_fract_x
 _atom_site_fract_y
 _atom_site_fract_z
 _atom_site_occupancy
  F  F0  1  0.00000000  0.00000000  0.50000000  1
  F  F1  1  0.50000000  -0.00000000  0.00000000  1
  F  F2  1  0.00000000  0.50000000  0.50000000  1
  F  F3  1  0.50000000  0.50000000  -0.00000000  1
  F  F4  1  0.62533196  0.20803887  0.77745640  1
  F  F5  1  0.87466804  0.79196113  0.27745640  1
  F  F6  1  0.37466804  0.70803887  0.22254360  1
  F  F7  1  0.12533196  0.29196113  0.72254360  1
  F  F8  1  0.37466804  0.79196113  0.22254360  1
  F  F9  1  0.12533196  0.20803887  0.72254360  1
  F  F10  1  0.62533196  0.29196113  0.77745640  1
  F  F11  1  0.87466804  0.70803887  0.27745640  1
  F  F12  1  0.91551634  0.33140789  0.40948075  1
  F  F13  1  0.58448366  0.66859211  0.90948075  1
  F  F14  1  0.08448366  0.83140789  0.59051925  1
  F  F15  1  0.41551634  0.16859211  0.09051925  1
  F  F16  1  0.08448366  0.66859211  0.59051925  1
  F  F17  1  0.41551634  0.33140789  0.09051925  1
  F  F18  1  0.91551634  0.16859211  0.40948075  1
  F  F19  1  0.58448366  0.83140789  0.90948075  1
  Li  Li20  1  0.24536285  0.25000000  0.05729791  1
  Li  Li21  1  0.25463715  0.75000000  0.55729791  1
  Li  Li22  1  0.75463715  0.75000000  0.94270209  1
  Li  Li23  1  0.74536285  0.25000000  0.44270209  1
  Li  Li24  1  0.63140416  0.56557470  0.31930718  1
  Li  Li25  1  -0.13140416  -0.56557470  0.81930718  1
  Li  Li26  1  -0.63140416  1.06557470  -0.31930718  1
  Li  Li27  1  1.13140416  -0.06557470  0.18069282  1
  Li  Li28  1  -0.63140416  -0.56557470  -0.31930718  1
  Li  Li29  1  1.13140416  0.56557470  0.18069282  1
  Li  Li30  1  0.63140416  -0.06557470  0.31930718  1
  Li  Li31  1  -0.13140416  1.06557470  0.81930718  1
  Li  Li32  1  0.00000000  0.00000000  0.00000000  1
  Li  Li33  1  0.50000000  -0.00000000  0.50000000  1
  Li  Li34  1  0.00000000  0.50000000  0.00000000  1
  Li  Li35  1  0.50000000  0.50000000  0.50000000  1
  Li  Li36  1  0.10313041  0.25000000  0.32059285  1
  Li  Li37  1  0.39686959  0.75000000  0.82059285  1
  Li  Li38  1  0.89686959  0.75000000  0.67940715  1
  Li  Li39  1  0.60313041  0.25000000  0.17940715  1
