# generated using pymatgen
data_Li2Y2As2P3Se
_symmetry_space_group_name_H-M   'P 1'
_cell_length_a   5.18082039
_cell_length_b   5.36278390
_cell_length_c   7.31177553
_cell_angle_alpha   94.47618812
_cell_angle_beta   99.74820714
_cell_angle_gamma   107.97906864
_symmetry_Int_Tables_number   1
_chemical_formula_structural   Li2Y2As2P3Se
_chemical_formula_sum   'Li2 Y2 As2 P3 Se1'
_cell_volume   188.58898487
_cell_formula_units_Z   1
loop_
 _symmetry_equiv_pos_site_id
 _symmetry_equiv_pos_as_xyz
  1  'x, y, z'
loop_
 _atom_site_type_symbol
 _atom_site_label
 _atom_site_symmetry_multiplicity
 _atom_site_fract_x
 _atom_site_fract_y
 _atom_site_fract_z
 _atom_site_occupancy
  Se  Se0  1  0.12500000  0.00000000  0.25000000  1
  Y  Y1  1  0.00000000  0.00000000  0.00000000  1
  Y  Y2  1  0.37500000  0.00000000  0.25000000  1
  P  P3  1  0.25000000  0.25000000  0.25000000  1
  P  P4  1  0.00000000  0.25000000  0.12500000  1
  P  P5  1  0.88138278  0.93048010  0.22736616  1
  As  As6  1  0.96885131  0.66996830  0.22956807  1
  As  As7  1  0.27507525  0.85976107  0.95620966  1
  Li  Li8  1  0.13961532  0.93520063  0.28769530  1
  Li  Li9  1  0.18370360  0.57463847  0.84505997  1
