# generated using pymatgen
data_LiF
_symmetry_space_group_name_H-M   'P 1'
_cell_length_a   10.70912150
_cell_length_b   12.04910737
_cell_length_c   13.72340556
_cell_angle_alpha   90.00000000
_cell_angle_beta   90.00000000
_cell_angle_gamma   90.00000000
_symmetry_Int_Tables_number   1
_chemical_formula_structural   LiF
_chemical_formula_sum   'Li52 F52'
_cell_volume   1770.80450527
_cell_formula_units_Z   52
loop_
 _symmetry_equiv_pos_site_id
 _symmetry_equiv_pos_as_xyz
  1  'x, y, z'
loop_
 _atom_site_type_symbol
 _atom_site_label
 _atom_site_symmetry_multiplicity
 _atom_site_fract_x
 _atom_site_fract_y
 _atom_site_fract_z
 _atom_site_occupancy
  F  F0  1  0.00000000  0.00000000  0.50000000  1
  F  F1  1  0.50000000  0.00000000  0.00000000  1
  F  F2  1  0.00000000  0.50000000  0.50000000  1
  F  F3  1  0.50000000  0.50000000  0.00000000  1
  F  F4  1  0.29509341  0.35236201  0.85136577  1
  F  F5  1  0.20490659  0.64763799  0.35136577  1
  F  F6  1  0.70490659  0.85236201  0.14863423  1
  F  F7  1  0.79509341  0.14763799  0.64863423  1
  F  F8  1  0.70490659  0.64763799  0.14863423  1
  F  F9  1  0.79509341  0.35236201  0.64863423  1
  F  F10  1  0.29509341  0.14763799  0.85136577  1
  F  F11  1  0.20490659  0.85236201  0.35136577  1
  F  F12  1  0.43874811  0.25000000  0.44398240  1
  F  F13  1  0.06125189  0.75000000  0.94398240  1
  F  F14  1  0.56125189  0.75000000  0.55601760  1
  F  F15  1  0.93874811  0.25000000  0.05601760  1
  F  F16  1  0.28887921  0.88065787  0.14424537  1
  F  F17  1  0.21112079  0.11934213  0.64424537  1
  F  F18  1  0.71112079  0.38065787  0.85575463  1
  F  F19  1  0.78887921  0.61934213  0.35575463  1
  F  F20  1  0.71112079  0.11934213  0.85575463  1
  F  F21  1  0.78887921  0.88065787  0.35575463  1
  F  F22  1  0.28887921  0.61934213  0.14424537  1
  F  F23  1  0.21112079  0.38065787  0.64424537  1
  F  F24  1  0.58677089  0.84673840  0.36942141  1
  F  F25  1  0.91322911  0.15326160  0.86942141  1
  F  F26  1  0.41322911  0.34673840  0.63057859  1
  F  F27  1  0.08677089  0.65326160  0.13057859  1
  F  F28  1  0.41322911  0.15326160  0.63057859  1
  F  F29  1  0.08677089  0.84673840  0.13057859  1
  F  F30  1  0.58677089  0.65326160  0.36942141  1
  F  F31  1  0.91322911  0.34673840  0.86942141  1
  F  F32  1  0.02234508  0.13309431  0.68778994  1
  F  F33  1  0.47765492  0.86690569  0.18778994  1
  F  F34  1  0.97765492  0.63309431  0.31221006  1
  F  F35  1  0.52234508  0.36690569  0.81221006  1
  F  F36  1  0.97765492  0.86690569  0.31221006  1
  F  F37  1  0.52234508  0.13309431  0.81221006  1
  F  F38  1  0.02234508  0.36690569  0.68778994  1
  F  F39  1  0.47765492  0.63309431  0.18778994  1
  F  F40  1  0.05985429  0.25000000  0.75592093  1
  F  F41  1  0.44014571  0.75000000  0.25592093  1
  F  F42  1  0.94014571  0.75000000  0.24407907  1
  F  F43  1  0.55985429  0.25000000  0.74407907  1
  F  F44  1  0.95827216  0.68211577  0.82656417  1
  F  F45  1  0.54172784  0.31788423  0.32656417  1
  F  F46  1  0.04172784  0.18211577  0.17343583  1
  F  F47  1  0.45827216  0.81788423  0.67343583  1
  F  F48  1  0.04172784  0.31788423  0.17343583  1
  F  F49  1  0.45827216  0.68211577  0.67343583  1
  F  F50  1  0.95827216  0.81788423  0.82656417  1
  F  F51  1  0.54172784  0.18211577  0.32656417  1
  Li  Li52  1  0.09891031  0.25000000  0.99656560  1
  Li  Li53  1  0.40108969  0.75000000  0.49656560  1
  Li  Li54  1  0.90108969  0.75000000  0.00343440  1
  Li  Li55  1  0.59891031  0.25000000  0.50343440  1
  Li  Li56  1  0.92606099  0.25000000  0.43877896  1
  Li  Li57  1  0.57393901  0.75000000  0.93877896  1
  Li  Li58  1  0.07393901  0.75000000  0.56122104  1
  Li  Li59  1  0.42606099  0.25000000  0.06122104  1
  Li  Li60  1  0.32918921  0.45191491  0.60306758  1
  Li  Li61  1  0.17081079  -0.45191491  1.10306758  1
  Li  Li62  1  -0.32918921  0.95191491  -0.60306758  1
  Li  Li63  1  0.82918921  0.04808509  -0.10306758  1
  Li  Li64  1  -0.32918921  -0.45191491  -0.60306758  1
  Li  Li65  1  0.82918921  0.45191491  -0.10306758  1
  Li  Li66  1  0.32918921  0.04808509  0.60306758  1
  Li  Li67  1  0.17081079  0.95191491  1.10306758  1
  Li  Li68  1  0.35885810  0.82018380  0.33806364  1
  Li  Li69  1  0.14114190  0.17981620  0.83806364  1
  Li  Li70  1  0.64114190  0.32018380  0.66193636  1
  Li  Li71  1  0.85885810  0.67981620  0.16193636  1
  Li  Li72  1  0.64114190  0.17981620  0.66193636  1
  Li  Li73  1  0.85885810  0.82018380  0.16193636  1
  Li  Li74  1  0.35885810  0.67981620  0.33806364  1
  Li  Li75  1  0.14114190  0.32018380  0.83806364  1
  Li  Li76  1  0.82272558  0.03203949  0.08709853  1
  Li  Li77  1  0.67727442  0.96796051  0.58709853  1
  Li  Li78  1  0.17727442  0.53203949  0.91290147  1
  Li  Li79  1  0.32272558  0.46796051  0.41290147  1
  Li  Li80  1  0.17727442  0.96796051  0.91290147  1
  Li  Li81  1  0.32272558  0.03203949  0.41290147  1
  Li  Li82  1  0.82272558  0.46796051  0.08709853  1
  Li  Li83  1  0.67727442  0.53203949  0.58709853  1
  Li  Li84  1  0.00000000  0.00000000  0.00000000  1
  Li  Li85  1  0.50000000  0.00000000  0.50000000  1
  Li  Li86  1  0.00000000  0.50000000  0.00000000  1
  Li  Li87  1  0.50000000  0.50000000  0.50000000  1
  Li  Li88  1  0.40635190  0.98883932  0.17910598  1
  Li  Li89  1  0.09364810  0.01116068  0.67910598  1
  Li  Li90  1  0.59364810  0.48883932  0.82089402  1
  Li  Li91  1  0.90635190  0.51116068  0.32089402  1
  Li  Li92  1  0.59364810  0.01116068  0.82089402  1
  Li  Li93  1  0.90635190  0.98883932  0.32089402  1
  Li  Li94  1  0.40635190  0.51116068  0.17910598  1
  Li  Li95  1  0.09364810  0.48883932  0.67910598  1
  Li  Li96  1  0.18602112  0.41345713  0.87457524  1
  Li  Li97  1  0.31397888  0.58654287  0.37457524  1
  Li  Li98  1  0.81397888  0.91345713  0.12542476  1
  Li  Li99  1  0.68602112  0.08654287  0.62542476  1
  Li  Li100  1  0.81397888  0.58654287  0.12542476  1
  Li  Li101  1  0.68602112  0.41345713  0.62542476  1
  Li  Li102  1  0.18602112  0.08654287  0.87457524  1
  Li  Li103  1  0.31397888  0.91345713  0.37457524  1
