# generated using pymatgen
data_Li2YAsP4Se
_symmetry_space_group_name_H-M   'P 1'
_cell_length_a   5.18245381
_cell_length_b   5.40409735
_cell_length_c   6.68206297
_cell_angle_alpha   93.08488018
_cell_angle_beta   97.39470406
_cell_angle_gamma   100.97321945
_symmetry_Int_Tables_number   1
_chemical_formula_structural   Li2YAsP4Se
_chemical_formula_sum   'Li2 Y1 As1 P4 Se1'
_cell_volume   181.60104855
_cell_formula_units_Z   1
loop_
 _symmetry_equiv_pos_site_id
 _symmetry_equiv_pos_as_xyz
  1  'x, y, z'
loop_
 _atom_site_type_symbol
 _atom_site_label
 _atom_site_symmetry_multiplicity
 _atom_site_fract_x
 _atom_site_fract_y
 _atom_site_fract_z
 _atom_site_occupancy
  Se  Se0  1  0.00000000  0.00000000  0.00000000  1
  Y  Y1  1  0.50000000  0.50000000  0.50000000  1
  P  P2  1  0.25000000  0.25000000  0.25000000  1
  P  P3  1  0.75000000  0.25000000  0.00000000  1
  P  P4  1  0.25000000  0.75000000  0.50000000  1
  P  P5  1  0.30291662  0.43904605  0.42190115  1
  As  As6  1  0.56889530  0.78557260  0.25890927  1
  Li  Li7  1  0.37866383  0.83642598  0.92274287  1
  Li  Li8  1  0.12814915  0.25798221  0.92624486  1
