# generated using pymatgen
data_LiF
_symmetry_space_group_name_H-M   'P 1'
_cell_length_a   10.25397895
_cell_length_b   10.06322026
_cell_length_c   6.49440607
_cell_angle_alpha   90.00000000
_cell_angle_beta   90.00000000
_cell_angle_gamma   90.00000000
_symmetry_Int_Tables_number   1
_chemical_formula_structural   LiF
_chemical_formula_sum   'Li24 F24'
_cell_volume   670.14509043
_cell_formula_units_Z   24
loop_
 _symmetry_equiv_pos_site_id
 _symmetry_equiv_pos_as_xyz
  1  'x, y, z'
loop_
 _atom_site_type_symbol
 _atom_site_label
 _atom_site_symmetry_multiplicity
 _atom_site_fract_x
 _atom_site_fract_y
 _atom_site_fract_z
 _atom_site_occupancy
  F  F0  1  0.37674745  0.59910362  0.18728652  1
  F  F1  1  0.12325255  0.40089638  0.68728652  1
  F  F2  1  0.62325255  0.09910362  0.81271348  1
  F  F3  1  0.87674745  0.90089638  0.31271348  1
  F  F4  1  0.62325255  0.40089638  0.81271348  1
  F  F5  1  0.87674745  0.59910362  0.31271348  1
  F  F6  1  0.37674745  0.90089638  0.18728652  1
  F  F7  1  0.12325255  0.09910362  0.68728652  1
  F  F8  1  0.14234158  0.25000000  0.88119391  1
  F  F9  1  0.35765842  0.75000000  0.38119391  1
  F  F10  1  0.85765842  0.75000000  0.11880609  1
  F  F11  1  0.64234158  0.25000000  0.61880609  1
  F  F12  1  0.05760179  0.66105418  0.26146992  1
  F  F13  1  0.44239821  0.33894582  0.76146992  1
  F  F14  1  0.94239821  0.16105418  0.73853008  1
  F  F15  1  0.55760179  0.83894582  0.23853008  1
  F  F16  1  0.94239821  0.33894582  0.73853008  1
  F  F17  1  0.55760179  0.66105418  0.23853008  1
  F  F18  1  0.05760179  0.83894582  0.26146992  1
  F  F19  1  0.44239821  0.16105418  0.76146992  1
  F  F20  1  0.00000000  0.00000000  0.50000000  1
  F  F21  1  0.50000000  0.00000000  0.00000000  1
  F  F22  1  0.00000000  0.50000000  0.50000000  1
  F  F23  1  0.50000000  0.50000000  0.00000000  1
  Li  Li24  1  0.44319035  0.90300852  0.83811517  1
  Li  Li25  1  0.05680965  -0.90300852  1.33811517  1
  Li  Li26  1  -0.44319035  1.40300852  -0.83811517  1
  Li  Li27  1  0.94319035  -0.40300852  -0.33811517  1
  Li  Li28  1  -0.44319035  -0.90300852  -0.83811517  1
  Li  Li29  1  0.94319035  0.90300852  -0.33811517  1
  Li  Li30  1  0.44319035  -0.40300852  0.83811517  1
  Li  Li31  1  0.05680965  1.40300852  1.33811517  1
  Li  Li32  1  0.37566603  0.64524534  0.68933539  1
  Li  Li33  1  0.12433397  0.35475466  0.18933539  1
  Li  Li34  1  0.62433397  0.14524534  0.31066461  1
  Li  Li35  1  0.87566603  0.85475466  0.81066461  1
  Li  Li36  1  0.62433397  0.35475466  0.31066461  1
  Li  Li37  1  0.87566603  0.64524534  0.81066461  1
  Li  Li38  1  0.37566603  0.85475466  0.68933539  1
  Li  Li39  1  0.12433397  0.14524534  0.18933539  1
  Li  Li40  1  0.00000000  0.00000000  0.00000000  1
  Li  Li41  1  0.50000000  0.00000000  0.50000000  1
  Li  Li42  1  0.00000000  0.50000000  0.00000000  1
  Li  Li43  1  0.50000000  0.50000000  0.50000000  1
  Li  Li44  1  0.90539396  0.25000000  0.99536333  1
  Li  Li45  1  0.59460604  0.75000000  0.49536333  1
  Li  Li46  1  0.09460604  0.75000000  0.00463667  1
  Li  Li47  1  0.40539396  0.25000000  0.50463667  1
