# generated using pymatgen
data_LiY2Sb2P2Se
_symmetry_space_group_name_H-M   'P 1'
_cell_length_a   4.81024108
_cell_length_b   4.82118218
_cell_length_c   6.10451724
_cell_angle_alpha   94.23107201
_cell_angle_beta   95.60093008
_cell_angle_gamma   101.32766500
_symmetry_Int_Tables_number   1
_chemical_formula_structural   LiY2Sb2P2Se
_chemical_formula_sum   'Li1 Y2 Sb2 P2 Se1'
_cell_volume   137.52152009
_cell_formula_units_Z   1
loop_
 _symmetry_equiv_pos_site_id
 _symmetry_equiv_pos_as_xyz
  1  'x, y, z'
loop_
 _atom_site_type_symbol
 _atom_site_label
 _atom_site_symmetry_multiplicity
 _atom_site_fract_x
 _atom_site_fract_y
 _atom_site_fract_z
 _atom_site_occupancy
  Se  Se0  1  0.12500000  0.00000000  0.25000000  1
  Y  Y1  1  0.00000000  0.00000000  0.00000000  1
  Y  Y2  1  0.37500000  0.00000000  0.25000000  1
  P  P3  1  0.25000000  0.25000000  0.25000000  1
  P  P4  1  0.00000000  0.25000000  0.12500000  1
  Li  Li5  1  0.12101248  0.28617020  0.63014806  1
  Sb  Sb6  1  0.36582412  0.63675539  0.64589668  1
  Sb  Sb7  1  0.62926734  0.27165925  0.21109668  1
