# generated using pymatgen
data_LiF
_symmetry_space_group_name_H-M   'P 1'
_cell_length_a   10.24291377
_cell_length_b   10.24291377
_cell_length_c   10.20182095
_cell_angle_alpha   90.00000000
_cell_angle_beta   90.00000000
_cell_angle_gamma   120.00000000
_symmetry_Int_Tables_number   1
_chemical_formula_structural   LiF
_chemical_formula_sum   'Li48 F48'
_cell_volume   926.94797890
_cell_formula_units_Z   48
loop_
 _symmetry_equiv_pos_site_id
 _symmetry_equiv_pos_as_xyz
  1  'x, y, z'
loop_
 _atom_site_type_symbol
 _atom_site_label
 _atom_site_symmetry_multiplicity
 _atom_site_fract_x
 _atom_site_fract_y
 _atom_site_fract_z
 _atom_site_occupancy
  F  F0  1  0.48319772  0.40570926  0.54371273  1
  F  F1  1  0.59429074  0.07748845  0.54371273  1
  F  F2  1  0.92251155  0.51680228  0.54371273  1
  F  F3  1  0.40570926  0.48319772  0.95628727  1
  F  F4  1  0.07748845  0.59429074  0.95628727  1
  F  F5  1  0.51680228  0.92251155  0.95628727  1
  F  F6  1  0.51680228  0.59429074  0.45628727  1
  F  F7  1  0.40570926  0.92251155  0.45628727  1
  F  F8  1  0.07748845  0.48319772  0.45628727  1
  F  F9  1  0.59429074  0.51680228  0.04371273  1
  F  F10  1  0.92251155  0.40570926  0.04371273  1
  F  F11  1  0.48319772  0.07748845  0.04371273  1
  F  F12  1  0.14986438  0.73904260  0.87704606  1
  F  F13  1  0.26095740  0.41082179  0.87704606  1
  F  F14  1  0.58917821  0.85013562  0.87704606  1
  F  F15  1  0.07237593  0.81653105  0.28962060  1
  F  F16  1  0.74415512  0.92762407  0.28962060  1
  F  F17  1  0.18346895  0.25584488  0.28962060  1
  F  F18  1  0.18346895  0.92762407  0.78962060  1
  F  F19  1  0.07237593  0.25584488  0.78962060  1
  F  F20  1  0.74415512  0.81653105  0.78962060  1
  F  F21  1  0.26095740  0.85013562  0.37704606  1
  F  F22  1  0.58917821  0.73904260  0.37704606  1
  F  F23  1  0.14986438  0.41082179  0.37704606  1
  F  F24  1  0.81653105  0.07237593  0.21037940  1
  F  F25  1  0.92762407  0.74415512  0.21037940  1
  F  F26  1  0.25584488  0.18346895  0.21037940  1
  F  F27  1  0.73904260  0.14986438  0.62295394  1
  F  F28  1  0.41082179  0.26095740  0.62295394  1
  F  F29  1  0.85013562  0.58917821  0.62295394  1
  F  F30  1  0.85013562  0.26095740  0.12295394  1
  F  F31  1  0.73904260  0.58917821  0.12295394  1
  F  F32  1  0.41082179  0.14986438  0.12295394  1
  F  F33  1  0.92762407  0.18346895  0.71037940  1
  F  F34  1  0.25584488  0.07237593  0.71037940  1
  F  F35  1  0.81653105  0.74415512  0.71037940  1
  F  F36  1  0.00000000  0.00000000  0.89565027  1
  F  F37  1  0.00000000  0.00000000  0.60434973  1
  F  F38  1  0.00000000  0.00000000  0.10434973  1
  F  F39  1  0.00000000  0.00000000  0.39565027  1
  F  F40  1  0.66666667  0.33333333  0.22898361  1
  F  F41  1  0.66666667  0.33333333  0.93768306  1
  F  F42  1  0.66666667  0.33333333  0.43768306  1
  F  F43  1  0.66666667  0.33333333  0.72898361  1
  F  F44  1  0.33333333  0.66666667  0.56231694  1
  F  F45  1  0.33333333  0.66666667  0.27101639  1
  F  F46  1  0.33333333  0.66666667  0.77101639  1
  F  F47  1  0.33333333  0.66666667  0.06231694  1
  Li  Li48  1  0.12972802  0.58690823  0.05445724  1
  Li  Li49  1  -0.58690823  -0.45718021  0.05445724  1
  Li  Li50  1  0.45718021  -0.12972802  0.05445724  1
  Li  Li51  1  0.58690823  0.12972802  0.44554276  1
  Li  Li52  1  -0.45718021  -0.58690823  0.44554276  1
  Li  Li53  1  -0.12972802  0.45718021  0.44554276  1
  Li  Li54  1  -0.12972802  -0.58690823  -0.05445724  1
  Li  Li55  1  0.58690823  0.45718021  -0.05445724  1
  Li  Li56  1  -0.45718021  0.12972802  -0.05445724  1
  Li  Li57  1  -0.58690823  -0.12972802  0.55445724  1
  Li  Li58  1  0.45718021  0.58690823  0.55445724  1
  Li  Li59  1  0.12972802  -0.45718021  0.55445724  1
  Li  Li60  1  0.79639469  0.92024156  0.38779057  1
  Li  Li61  1  0.07975844  -0.12384687  0.38779057  1
  Li  Li62  1  1.12384687  0.20360531  0.38779057  1
  Li  Li63  1  1.25357489  0.46306135  0.77887609  1
  Li  Li64  1  0.20948646  -0.25357489  0.77887609  1
  Li  Li65  1  0.53693865  0.79051354  0.77887609  1
  Li  Li66  1  0.53693865  -0.25357489  0.27887609  1
  Li  Li67  1  1.25357489  0.79051354  0.27887609  1
  Li  Li68  1  0.20948646  0.46306135  0.27887609  1
  Li  Li69  1  0.07975844  0.20360531  0.88779057  1
  Li  Li70  1  1.12384687  0.92024156  0.88779057  1
  Li  Li71  1  0.79639469  -0.12384687  0.88779057  1
  Li  Li72  1  0.46306135  1.25357489  0.72112391  1
  Li  Li73  1  -0.25357489  0.20948646  0.72112391  1
  Li  Li74  1  0.79051354  0.53693865  0.72112391  1
  Li  Li75  1  0.92024156  0.79639469  1.11220943  1
  Li  Li76  1  -0.12384687  0.07975844  1.11220943  1
  Li  Li77  1  0.20360531  1.12384687  1.11220943  1
  Li  Li78  1  0.20360531  0.07975844  0.61220943  1
  Li  Li79  1  0.92024156  1.12384687  0.61220943  1
  Li  Li80  1  -0.12384687  0.79639469  0.61220943  1
  Li  Li81  1  -0.25357489  0.53693865  1.22112391  1
  Li  Li82  1  0.79051354  1.25357489  1.22112391  1
  Li  Li83  1  0.46306135  0.20948646  1.22112391  1
  Li  Li84  1  0.00000000  0.00000000  0.00000000  1
  Li  Li85  1  0.00000000  0.00000000  0.50000000  1
  Li  Li86  1  0.66666667  0.33333333  0.33333333  1
  Li  Li87  1  0.66666667  0.33333333  0.83333333  1
  Li  Li88  1  0.33333333  0.66666667  0.66666667  1
  Li  Li89  1  0.33333333  0.66666667  0.16666667  1
  Li  Li90  1  0.00000000  0.00000000  0.25000000  1
  Li  Li91  1  0.00000000  0.00000000  0.75000000  1
  Li  Li92  1  0.66666667  0.33333333  0.58333333  1
  Li  Li93  1  0.66666667  0.33333333  0.08333333  1
  Li  Li94  1  0.33333333  0.66666667  0.91666667  1
  Li  Li95  1  0.33333333  0.66666667  0.41666667  1
