# generated using pymatgen
data_LiF
_symmetry_space_group_name_H-M   'P 1'
_cell_length_a   9.40586590
_cell_length_b   9.52960400
_cell_length_c   5.84837332
_cell_angle_alpha   90.00000000
_cell_angle_beta   90.00000000
_cell_angle_gamma   90.00000000
_symmetry_Int_Tables_number   1
_chemical_formula_structural   LiF
_chemical_formula_sum   'Li16 F16'
_cell_volume   524.21413172
_cell_formula_units_Z   16
loop_
 _symmetry_equiv_pos_site_id
 _symmetry_equiv_pos_as_xyz
  1  'x, y, z'
loop_
 _atom_site_type_symbol
 _atom_site_label
 _atom_site_symmetry_multiplicity
 _atom_site_fract_x
 _atom_site_fract_y
 _atom_site_fract_z
 _atom_site_occupancy
  F  F0  1  0.44946025  0.30713294  0.63009114  1
  F  F1  1  -0.44946025  -0.30713294  0.63009114  1
  F  F2  1  0.05053975  0.80713294  -0.13009114  1
  F  F3  1  0.94946025  0.19286706  -0.13009114  1
  F  F4  1  -0.44946025  -0.30713294  -0.63009114  1
  F  F5  1  0.44946025  0.30713294  -0.63009114  1
  F  F6  1  0.94946025  0.19286706  1.13009114  1
  F  F7  1  0.05053975  0.80713294  1.13009114  1
  F  F8  1  0.87370066  0.30983601  0.89790943  1
  F  F9  1  0.12629934  0.69016399  0.89790943  1
  F  F10  1  0.62629934  0.80983601  0.60209057  1
  F  F11  1  0.37370066  0.19016399  0.60209057  1
  F  F12  1  0.12629934  0.69016399  0.10209057  1
  F  F13  1  0.87370066  0.30983601  0.10209057  1
  F  F14  1  0.37370066  0.19016399  0.39790943  1
  F  F15  1  0.62629934  0.80983601  0.39790943  1
  Li  Li16  1  0.00000000  0.50000000  0.32314089  1
  Li  Li17  1  0.50000000  0.00000000  0.17685911  1
  Li  Li18  1  0.00000000  0.50000000  0.67685911  1
  Li  Li19  1  0.50000000  0.00000000  0.82314089  1
  Li  Li20  1  0.50217165  0.82430453  0.83199527  1
  Li  Li21  1  0.49782835  0.17569547  0.83199527  1
  Li  Li22  1  0.99782835  0.32430453  0.66800473  1
  Li  Li23  1  0.00217165  0.67569547  0.66800473  1
  Li  Li24  1  0.49782835  0.17569547  0.16800473  1
  Li  Li25  1  0.50217165  0.82430453  0.16800473  1
  Li  Li26  1  0.00217165  0.67569547  0.33199527  1
  Li  Li27  1  0.99782835  0.32430453  0.33199527  1
  Li  Li28  1  0.00000000  0.00000000  0.50000000  1
  Li  Li29  1  0.50000000  0.50000000  0.00000000  1
  Li  Li30  1  0.00000000  0.50000000  0.00000000  1
  Li  Li31  1  0.50000000  0.00000000  0.50000000  1
