# generated using pymatgen
data_Li2Si4Te3F12
_symmetry_space_group_name_H-M   'P 1'
_cell_length_a   9.71521728
_cell_length_b   10.08568824
_cell_length_c   13.28353302
_cell_angle_alpha   90.00000000
_cell_angle_beta   90.00000000
_cell_angle_gamma   90.00000000
_symmetry_Int_Tables_number   1
_chemical_formula_structural   Li2Si4Te3F12
_chemical_formula_sum   'Li8 Si16 Te12 F48'
_cell_volume   1301.58236973
_cell_formula_units_Z   4
loop_
 _symmetry_equiv_pos_site_id
 _symmetry_equiv_pos_as_xyz
  1  'x, y, z'
loop_
 _atom_site_type_symbol
 _atom_site_label
 _atom_site_symmetry_multiplicity
 _atom_site_fract_x
 _atom_site_fract_y
 _atom_site_fract_z
 _atom_site_occupancy
  F  F0  1  0.89766875  0.25133347  0.45028750  1
  F  F1  1  0.10233125  0.74866653  0.45028750  1
  F  F2  1  0.60233125  0.75133347  0.54971250  1
  F  F3  1  0.39766875  0.24866653  0.54971250  1
  F  F4  1  0.10233125  0.74866653  0.54971250  1
  F  F5  1  0.89766875  0.25133347  0.54971250  1
  F  F6  1  0.39766875  0.24866653  0.45028750  1
  F  F7  1  0.60233125  0.75133347  0.45028750  1
  F  F8  1  0.00000000  0.50000000  0.33108659  1
  F  F9  1  0.50000000  0.00000000  0.66891341  1
  F  F10  1  0.00000000  0.50000000  0.66891341  1
  F  F11  1  0.50000000  0.00000000  0.33108659  1
  F  F12  1  0.78487256  0.61378342  0.93377063  1
  F  F13  1  0.21512744  0.38621658  0.93377063  1
  F  F14  1  0.71512744  0.11378342  0.06622937  1
  F  F15  1  0.28487256  0.88621658  0.06622937  1
  F  F16  1  0.21512744  0.38621658  0.06622937  1
  F  F17  1  0.78487256  0.61378342  0.06622937  1
  F  F18  1  0.28487256  0.88621658  0.93377063  1
  F  F19  1  0.71512744  0.11378342  0.93377063  1
  F  F20  1  0.17489402  0.21259553  0.46109863  1
  F  F21  1  0.82510598  0.78740447  0.46109863  1
  F  F22  1  0.32510598  0.71259553  0.53890137  1
  F  F23  1  0.67489402  0.28740447  0.53890137  1
  F  F24  1  0.82510598  0.78740447  0.53890137  1
  F  F25  1  0.17489402  0.21259553  0.53890137  1
  F  F26  1  0.67489402  0.28740447  0.46109863  1
  F  F27  1  0.32510598  0.71259553  0.46109863  1
  F  F28  1  0.37064243  0.40790018  0.71471333  1
  F  F29  1  0.62935757  0.59209982  0.71471333  1
  F  F30  1  0.12935757  0.90790018  0.28528667  1
  F  F31  1  0.87064243  0.09209982  0.28528667  1
  F  F32  1  0.62935757  0.59209982  0.28528667  1
  F  F33  1  0.37064243  0.40790018  0.28528667  1
  F  F34  1  0.87064243  0.09209982  0.71471333  1
  F  F35  1  0.12935757  0.90790018  0.71471333  1
  F  F36  1  0.72612006  0.05447178  0.50000000  1
  F  F37  1  0.27387994  0.94552822  0.50000000  1
  F  F38  1  0.77387994  0.55447178  0.50000000  1
  F  F39  1  0.22612006  0.44552822  0.50000000  1
  F  F40  1  0.06589512  0.63979787  0.64712467  1
  F  F41  1  0.93410488  0.36020213  0.64712467  1
  F  F42  1  0.43410488  0.13979787  0.35287533  1
  F  F43  1  0.56589512  0.86020213  0.35287533  1
  F  F44  1  0.93410488  0.36020213  0.35287533  1
  F  F45  1  0.06589512  0.63979787  0.35287533  1
  F  F46  1  0.56589512  0.86020213  0.64712467  1
  F  F47  1  0.43410488  0.13979787  0.64712467  1
  Li  Li48  1  0.57678099  0.41034790  0.32939661  1
  Li  Li49  1  0.42321901  0.58965210  0.32939661  1
  Li  Li50  1  0.92321901  0.91034790  0.67060339  1
  Li  Li51  1  0.07678099  0.08965210  0.67060339  1
  Li  Li52  1  0.42321901  0.58965210  0.67060339  1
  Li  Li53  1  0.57678099  0.41034790  0.67060339  1
  Li  Li54  1  0.07678099  0.08965210  0.32939661  1
  Li  Li55  1  0.92321901  0.91034790  0.32939661  1
  Si  Si56  1  0.00000000  0.00000000  0.50000000  1
  Si  Si57  1  0.50000000  0.50000000  0.50000000  1
  Si  Si58  1  0.02820952  0.62429392  0.50000000  1
  Si  Si59  1  0.97179048  0.37570608  0.50000000  1
  Si  Si60  1  0.47179048  0.12429392  0.50000000  1
  Si  Si61  1  0.52820952  0.87570608  0.50000000  1
  Si  Si62  1  0.70592266  0.50158506  0.85484219  1
  Si  Si63  1  -0.70592266  -0.50158506  0.85484219  1
  Si  Si64  1  -0.20592266  1.00158506  -0.85484219  1
  Si  Si65  1  1.20592266  -0.00158506  -0.85484219  1
  Si  Si66  1  -0.70592266  -0.50158506  -0.85484219  1
  Si  Si67  1  0.70592266  0.50158506  -0.85484219  1
  Si  Si68  1  1.20592266  -0.00158506  0.85484219  1
  Si  Si69  1  -0.20592266  1.00158506  0.85484219  1
  Si  Si70  1  0.00000000  0.50000000  0.50000000  1
  Si  Si71  1  0.50000000  0.00000000  0.50000000  1
  Te  Te72  1  0.49098317  0.73069342  0.00000000  1
  Te  Te73  1  0.50901683  0.26930658  -0.00000000  1
  Te  Te74  1  0.00901683  0.23069342  0.00000000  1
  Te  Te75  1  0.99098317  0.76930658  0.00000000  1
  Te  Te76  1  0.65898591  0.77504763  0.89669142  1
  Te  Te77  1  0.34101409  0.22495237  0.89669142  1
  Te  Te78  1  0.84101409  0.27504763  0.10330858  1
  Te  Te79  1  0.15898591  0.72495237  0.10330858  1
  Te  Te80  1  0.34101409  0.22495237  0.10330858  1
  Te  Te81  1  0.65898591  0.77504763  0.10330858  1
  Te  Te82  1  0.15898591  0.72495237  0.89669142  1
  Te  Te83  1  0.84101409  0.27504763  0.89669142  1
