# generated using pymatgen
data_LiF
_symmetry_space_group_name_H-M   'P 1'
_cell_length_a   8.08001379
_cell_length_b   9.82803409
_cell_length_c   7.18972120
_cell_angle_alpha   90.00000000
_cell_angle_beta   90.00000000
_cell_angle_gamma   90.00000000
_symmetry_Int_Tables_number   1
_chemical_formula_structural   LiF
_chemical_formula_sum   'Li20 F20'
_cell_volume   570.94044095
_cell_formula_units_Z   20
loop_
 _symmetry_equiv_pos_site_id
 _symmetry_equiv_pos_as_xyz
  1  'x, y, z'
loop_
 _atom_site_type_symbol
 _atom_site_label
 _atom_site_symmetry_multiplicity
 _atom_site_fract_x
 _atom_site_fract_y
 _atom_site_fract_z
 _atom_site_occupancy
  F  F0  1  0.64220007  0.25000000  0.45832739  1
  F  F1  1  0.85779993  0.75000000  0.95832739  1
  F  F2  1  0.35779993  0.75000000  0.54167261  1
  F  F3  1  0.14220007  0.25000000  0.04167261  1
  F  F4  1  0.13178994  0.46383995  0.19759000  1
  F  F5  1  0.36821006  0.53616005  0.69759000  1
  F  F6  1  0.86821006  0.96383995  0.80241000  1
  F  F7  1  0.63178994  0.03616005  0.30241000  1
  F  F8  1  0.86821006  0.53616005  0.80241000  1
  F  F9  1  0.63178994  0.46383995  0.30241000  1
  F  F10  1  0.13178994  0.03616005  0.19759000  1
  F  F11  1  0.36821006  0.96383995  0.69759000  1
  F  F12  1  0.60014144  0.09301067  0.65928719  1
  F  F13  1  0.89985856  0.90698933  0.15928719  1
  F  F14  1  0.39985856  0.59301067  0.34071281  1
  F  F15  1  0.10014144  0.40698933  0.84071281  1
  F  F16  1  0.39985856  0.90698933  0.34071281  1
  F  F17  1  0.10014144  0.09301067  0.84071281  1
  F  F18  1  0.60014144  0.40698933  0.65928719  1
  F  F19  1  0.89985856  0.59301067  0.15928719  1
  Li  Li20  1  0.90830560  0.10502316  0.84697571  1
  Li  Li21  1  -0.40830560  -0.10502316  1.34697571  1
  Li  Li22  1  -0.90830560  0.60502316  -0.84697571  1
  Li  Li23  1  1.40830560  0.39497684  -0.34697571  1
  Li  Li24  1  -0.90830560  -0.10502316  -0.84697571  1
  Li  Li25  1  1.40830560  0.10502316  -0.34697571  1
  Li  Li26  1  0.90830560  0.39497684  0.84697571  1
  Li  Li27  1  -0.40830560  0.60502316  1.34697571  1
  Li  Li28  1  0.31119033  0.25000000  0.82927674  1
  Li  Li29  1  0.18880967  0.75000000  0.32927674  1
  Li  Li30  1  0.68880967  0.75000000  0.17072326  1
  Li  Li31  1  0.81119033  0.25000000  0.67072326  1
  Li  Li32  1  0.00000000  0.00000000  0.50000000  1
  Li  Li33  1  0.50000000  0.00000000  -0.00000000  1
  Li  Li34  1  0.00000000  0.50000000  0.50000000  1
  Li  Li35  1  0.50000000  0.50000000  -0.00000000  1
  Li  Li36  1  0.23030106  0.25000000  0.38466829  1
  Li  Li37  1  0.26969894  0.75000000  0.88466829  1
  Li  Li38  1  0.76969894  0.75000000  0.61533171  1
  Li  Li39  1  0.73030106  0.25000000  0.11533171  1
