# generated using pymatgen
data_LiF
_symmetry_space_group_name_H-M   'P 1'
_cell_length_a   8.51000989
_cell_length_b   8.51000989
_cell_length_c   12.44762950
_cell_angle_alpha   90.00000000
_cell_angle_beta   90.00000000
_cell_angle_gamma   120.00000000
_symmetry_Int_Tables_number   1
_chemical_formula_structural   LiF
_chemical_formula_sum   'Li27 F27'
_cell_volume   780.68783924
_cell_formula_units_Z   27
loop_
 _symmetry_equiv_pos_site_id
 _symmetry_equiv_pos_as_xyz
  1  'x, y, z'
loop_
 _atom_site_type_symbol
 _atom_site_label
 _atom_site_symmetry_multiplicity
 _atom_site_fract_x
 _atom_site_fract_y
 _atom_site_fract_z
 _atom_site_occupancy
  F  F0  1  0.88402890  0.15416594  0.19210657  1
  F  F1  1  0.84583406  0.72986297  0.19210657  1
  F  F2  1  0.27013703  0.11597110  0.19210657  1
  F  F3  1  0.84583406  0.11597110  0.80789343  1
  F  F4  1  0.27013703  0.15416594  0.80789343  1
  F  F5  1  0.88402890  0.72986297  0.80789343  1
  F  F6  1  0.61474414  0.83274935  0.16233915  1
  F  F7  1  0.16725065  0.78199479  0.16233915  1
  F  F8  1  0.21800521  0.38525586  0.16233915  1
  F  F9  1  0.16725065  0.38525586  0.83766085  1
  F  F10  1  0.21800521  0.83274935  0.83766085  1
  F  F11  1  0.61474414  0.78199479  0.83766085  1
  F  F12  1  0.09009335  0.36867294  0.77066300  1
  F  F13  1  0.63132706  0.72142042  0.77066300  1
  F  F14  1  0.27857958  0.90990665  0.77066300  1
  F  F15  1  0.63132706  0.90990665  0.22933700  1
  F  F16  1  0.27857958  0.36867294  0.22933700  1
  F  F17  1  0.09009335  0.72142042  0.22933700  1
  F  F18  1  0.12342078  0.87657922  -0.00000000  1
  F  F19  1  0.12342078  0.24684156  0.00000000  1
  F  F20  1  0.75315844  0.87657922  0.00000000  1
  F  F21  1  0.77876661  0.35716590  0.81660904  1
  F  F22  1  0.64283410  0.42160072  0.81660904  1
  F  F23  1  0.57839928  0.22123339  0.81660904  1
  F  F24  1  0.64283410  0.22123339  0.18339096  1
  F  F25  1  0.57839928  0.35716590  0.18339096  1
  F  F26  1  0.77876661  0.42160072  0.18339096  1
  Li  Li27  1  0.33333333  0.66666667  -0.00000000  1
  Li  Li28  1  0.88205893  0.29468845  0.95179011  1
  Li  Li29  1  -0.29468845  0.58737048  0.95179011  1
  Li  Li30  1  -0.58737048  -0.88205893  0.95179011  1
  Li  Li31  1  -0.29468845  -0.88205893  -0.95179011  1
  Li  Li32  1  -0.58737048  0.29468845  -0.95179011  1
  Li  Li33  1  0.88205893  0.58737048  -0.95179011  1
  Li  Li34  1  0.66666667  0.33333333  0.50000000  1
  Li  Li35  1  0.16646957  0.83353043  0.50000000  1
  Li  Li36  1  0.16646957  0.33293914  0.50000000  1
  Li  Li37  1  0.66706086  0.83353043  0.50000000  1
  Li  Li38  1  0.44875429  0.67553067  0.72392197  1
  Li  Li39  1  0.32446933  0.77322363  0.72392197  1
  Li  Li40  1  0.22677637  0.55124571  0.72392197  1
  Li  Li41  1  0.32446933  0.55124571  0.27607803  1
  Li  Li42  1  0.22677637  0.67553067  0.27607803  1
  Li  Li43  1  0.44875429  0.77322363  0.27607803  1
  Li  Li44  1  0.65844034  0.55312353  0.37516111  1
  Li  Li45  1  0.44687647  0.10531681  0.37516111  1
  Li  Li46  1  0.89468319  0.34155966  0.37516111  1
  Li  Li47  1  0.44687647  0.34155966  0.62483889  1
  Li  Li48  1  0.89468319  0.55312353  0.62483889  1
  Li  Li49  1  0.65844034  0.10531681  0.62483889  1
  Li  Li50  1  0.05586898  0.94413102  0.50000000  1
  Li  Li51  1  0.05586898  0.11173796  0.50000000  1
  Li  Li52  1  0.88826204  0.94413102  0.50000000  1
  Li  Li53  1  0.00000000  0.00000000  0.00000000  1
