# generated using pymatgen
data_Li3Y2(P2Se)2
_symmetry_space_group_name_H-M   'P 1'
_cell_length_a   5.35388758
_cell_length_b   5.68723870
_cell_length_c   7.33294012
_cell_angle_alpha   94.07499753
_cell_angle_beta   98.87449744
_cell_angle_gamma   106.36764549
_symmetry_Int_Tables_number   1
_chemical_formula_structural   Li3Y2(P2Se)2
_chemical_formula_sum   'Li3 Y2 P4 Se2'
_cell_volume   210.11550117
_cell_formula_units_Z   1
loop_
 _symmetry_equiv_pos_site_id
 _symmetry_equiv_pos_as_xyz
  1  'x, y, z'
loop_
 _atom_site_type_symbol
 _atom_site_label
 _atom_site_symmetry_multiplicity
 _atom_site_fract_x
 _atom_site_fract_y
 _atom_site_fract_z
 _atom_site_occupancy
  Se  Se0  1  0.12500000  0.12500000  0.12500000  1
  Se  Se1  1  0.50000000  0.50000000  0.50000000  1
  Y  Y2  1  0.25000000  0.25000000  0.25000000  1
  Y  Y3  1  0.75000000  0.75000000  0.75000000  1
  P  P4  1  0.20186283  0.38720997  0.66237631  1
  P  P5  1  0.53720250  0.52878429  0.59193477  1
  P  P6  1  0.86449874  0.18059322  0.50765917  1
  P  P7  1  0.26190143  0.15310862  0.68848298  1
  Li  Li8  1  0.00432979  0.56669808  0.99943668  1
  Li  Li9  1  0.54119074  0.25086557  0.37867037  1
  Li  Li10  1  0.78081351  0.53119201  0.97824617  1
