# generated using pymatgen
data_LiF
_symmetry_space_group_name_H-M   'P 1'
_cell_length_a   4.31749500
_cell_length_b   4.31749500
_cell_length_c   32.05550707
_cell_angle_alpha   90.00000000
_cell_angle_beta   90.00000000
_cell_angle_gamma   120.00000000
_symmetry_Int_Tables_number   1
_chemical_formula_structural   LiF
_chemical_formula_sum   'Li27 F27'
_cell_volume   517.48405150
_cell_formula_units_Z   27
loop_
 _symmetry_equiv_pos_site_id
 _symmetry_equiv_pos_as_xyz
  1  'x, y, z'
loop_
 _atom_site_type_symbol
 _atom_site_label
 _atom_site_symmetry_multiplicity
 _atom_site_fract_x
 _atom_site_fract_y
 _atom_site_fract_z
 _atom_site_occupancy
  F  F0  1  0.54728480  0.86210850  0.08528513  1
  F  F1  1  0.13789150  0.68517630  0.08528513  1
  F  F2  1  0.31482370  0.45271520  0.08528513  1
  F  F3  1  0.13789150  0.45271520  0.91471487  1
  F  F4  1  0.31482370  0.86210850  0.91471487  1
  F  F5  1  0.54728480  0.68517630  0.91471487  1
  F  F6  1  0.50871268  0.73451100  0.07026708  1
  F  F7  1  0.26548900  0.77420167  0.07026708  1
  F  F8  1  0.22579833  0.49128732  0.07026708  1
  F  F9  1  0.26548900  0.49128732  0.92973292  1
  F  F10  1  0.22579833  0.73451100  0.92973292  1
  F  F11  1  0.50871268  0.77420167  0.92973292  1
  F  F12  1  0.27478700  0.15126278  0.92139798  1
  F  F13  1  0.84873722  0.12352422  0.92139798  1
  F  F14  1  0.87647578  0.72521300  0.92139798  1
  F  F15  1  0.84873722  0.72521300  0.07860202  1
  F  F16  1  0.87647578  0.15126278  0.07860202  1
  F  F17  1  0.27478700  0.12352422  0.07860202  1
  F  F18  1  0.15569514  0.84430486  0.50000000  1
  F  F19  1  0.15569514  0.31139028  0.50000000  1
  F  F20  1  0.68860972  0.84430486  0.50000000  1
  F  F21  1  0.33333333  0.66666667  0.80368652  1
  F  F22  1  0.33333333  0.66666667  0.19631348  1
  F  F23  1  0.66666667  0.33333333  0.50000000  1
  F  F24  1  0.46956074  0.53043926  0.50000000  1
  F  F25  1  0.46956074  0.93912148  0.50000000  1
  F  F26  1  0.06087852  0.53043926  0.50000000  1
  Li  Li27  1  0.76010996  0.87176041  0.46301886  1
  Li  Li28  1  -0.87176041  -0.11165045  0.46301886  1
  Li  Li29  1  0.11165045  -0.76010996  0.46301886  1
  Li  Li30  1  -0.87176041  -0.76010996  -0.46301886  1
  Li  Li31  1  0.11165045  0.87176041  -0.46301886  1
  Li  Li32  1  0.76010996  -0.11165045  -0.46301886  1
  Li  Li33  1  0.00000000  0.00000000  0.50000000  1
  Li  Li34  1  0.33333333  0.66666667  0.50000000  1
  Li  Li35  1  0.88899359  0.11100641  0.00000000  1
  Li  Li36  1  0.88899359  0.77798718  0.00000000  1
  Li  Li37  1  0.22201282  0.11100641  0.00000000  1
  Li  Li38  1  0.29126708  0.33605108  0.72197512  1
  Li  Li39  1  0.66394892  0.95521600  0.72197512  1
  Li  Li40  1  0.04478400  0.70873292  0.72197512  1
  Li  Li41  1  0.66394892  0.70873292  0.27802488  1
  Li  Li42  1  0.04478400  0.33605108  0.27802488  1
  Li  Li43  1  0.29126708  0.95521600  0.27802488  1
  Li  Li44  1  0.66666667  0.33333333  0.61397774  1
  Li  Li45  1  0.66666667  0.33333333  0.38602226  1
  Li  Li46  1  0.81667217  0.74050973  0.17211437  1
  Li  Li47  1  0.25949027  0.07616244  0.17211437  1
  Li  Li48  1  0.92383756  0.18332783  0.17211437  1
  Li  Li49  1  0.25949027  0.18332783  0.82788563  1
  Li  Li50  1  0.92383756  0.74050973  0.82788563  1
  Li  Li51  1  0.81667217  0.07616244  0.82788563  1
  Li  Li52  1  0.33333333  0.66666667  0.63205527  1
  Li  Li53  1  0.33333333  0.66666667  0.36794473  1
