# generated using pymatgen
data_LiF
_symmetry_space_group_name_H-M   'P 1'
_cell_length_a   12.27846609
_cell_length_b   6.09235238
_cell_length_c   6.56028433
_cell_angle_alpha   90.00000000
_cell_angle_beta   90.00000000
_cell_angle_gamma   90.00000000
_symmetry_Int_Tables_number   1
_chemical_formula_structural   LiF
_chemical_formula_sum   'Li24 F24'
_cell_volume   490.74037755
_cell_formula_units_Z   24
loop_
 _symmetry_equiv_pos_site_id
 _symmetry_equiv_pos_as_xyz
  1  'x, y, z'
loop_
 _atom_site_type_symbol
 _atom_site_label
 _atom_site_symmetry_multiplicity
 _atom_site_fract_x
 _atom_site_fract_y
 _atom_site_fract_z
 _atom_site_occupancy
  F  F0  1  0.75638557  0.04529378  0.70554368  1
  F  F1  1  0.74361443  0.95470622  0.20554368  1
  F  F2  1  0.24361443  0.54529378  0.29445632  1
  F  F3  1  0.25638557  0.45470622  0.79445632  1
  F  F4  1  0.24361443  0.95470622  0.29445632  1
  F  F5  1  0.25638557  0.04529378  0.79445632  1
  F  F6  1  0.75638557  0.45470622  0.70554368  1
  F  F7  1  0.74361443  0.54529378  0.20554368  1
  F  F8  1  0.77529545  0.97833563  0.76532877  1
  F  F9  1  0.72470455  0.02166437  0.26532877  1
  F  F10  1  0.22470455  0.47833563  0.23467123  1
  F  F11  1  0.27529545  0.52166437  0.73467123  1
  F  F12  1  0.22470455  0.02166437  0.23467123  1
  F  F13  1  0.27529545  0.97833563  0.73467123  1
  F  F14  1  0.77529545  0.52166437  0.76532877  1
  F  F15  1  0.72470455  0.47833563  0.26532877  1
  F  F16  1  0.36679025  0.25000000  0.85657181  1
  F  F17  1  0.13320975  0.75000000  0.35657181  1
  F  F18  1  0.63320975  0.75000000  0.14342819  1
  F  F19  1  0.86679025  0.25000000  0.64342819  1
  F  F20  1  0.33131870  0.25000000  0.66615716  1
  F  F21  1  0.16868130  0.75000000  0.16615716  1
  F  F22  1  0.66868130  0.75000000  0.33384284  1
  F  F23  1  0.83131870  0.25000000  0.83384284  1
  Li  Li24  1  0.00000000  0.00000000  0.00000000  1
  Li  Li25  1  0.50000000  0.00000000  0.50000000  1
  Li  Li26  1  0.00000000  0.50000000  0.00000000  1
  Li  Li27  1  0.50000000  0.50000000  0.50000000  1
  Li  Li28  1  0.95007635  0.04468593  0.59844706  1
  Li  Li29  1  -0.45007635  -0.04468593  1.09844706  1
  Li  Li30  1  -0.95007635  0.54468593  -0.59844706  1
  Li  Li31  1  1.45007635  0.45531407  -0.09844706  1
  Li  Li32  1  -0.95007635  -0.04468593  -0.59844706  1
  Li  Li33  1  1.45007635  0.04468593  -0.09844706  1
  Li  Li34  1  0.95007635  0.45531407  0.59844706  1
  Li  Li35  1  -0.45007635  0.54468593  1.09844706  1
  Li  Li36  1  0.42663133  0.25000000  0.94781501  1
  Li  Li37  1  0.07336867  0.75000000  0.44781501  1
  Li  Li38  1  0.57336867  0.75000000  0.05218499  1
  Li  Li39  1  0.92663133  0.25000000  0.55218499  1
  Li  Li40  1  0.35508763  0.00298423  0.74492681  1
  Li  Li41  1  0.14491237  0.99701577  0.24492681  1
  Li  Li42  1  0.64491237  0.50298423  0.25507319  1
  Li  Li43  1  0.85508763  0.49701577  0.75507319  1
  Li  Li44  1  0.64491237  0.99701577  0.25507319  1
  Li  Li45  1  0.85508763  0.00298423  0.75507319  1
  Li  Li46  1  0.35508763  0.49701577  0.74492681  1
  Li  Li47  1  0.14491237  0.50298423  0.24492681  1
