# generated using pymatgen
data_LiF
_symmetry_space_group_name_H-M   'P 1'
_cell_length_a   8.87999388
_cell_length_b   8.87999388
_cell_length_c   12.22406175
_cell_angle_alpha   90.00000000
_cell_angle_beta   90.00000000
_cell_angle_gamma   120.00000000
_symmetry_Int_Tables_number   1
_chemical_formula_structural   LiF
_chemical_formula_sum   'Li26 F26'
_cell_volume   834.77896930
_cell_formula_units_Z   26
loop_
 _symmetry_equiv_pos_site_id
 _symmetry_equiv_pos_as_xyz
  1  'x, y, z'
loop_
 _atom_site_type_symbol
 _atom_site_label
 _atom_site_symmetry_multiplicity
 _atom_site_fract_x
 _atom_site_fract_y
 _atom_site_fract_z
 _atom_site_occupancy
  F  F0  1  0.37715547  0.94605102  0.98286091  1
  F  F1  1  -0.94605102  -0.56889556  0.98286091  1
  F  F2  1  0.56889556  -0.37715547  0.98286091  1
  F  F3  1  -0.37715547  -0.94605102  1.48286091  1
  F  F4  1  0.94605102  0.56889556  1.48286091  1
  F  F5  1  -0.56889556  0.37715547  1.48286091  1
  F  F6  1  -0.37715547  -0.94605102  -0.98286091  1
  F  F7  1  0.94605102  0.56889556  -0.98286091  1
  F  F8  1  -0.56889556  0.37715547  -0.98286091  1
  F  F9  1  0.37715547  0.94605102  -0.48286091  1
  F  F10  1  -0.94605102  -0.56889556  -0.48286091  1
  F  F11  1  0.56889556  -0.37715547  -0.48286091  1
  F  F12  1  0.33333333  0.66666667  0.25000000  1
  F  F13  1  0.66666667  0.33333333  0.75000000  1
  F  F14  1  0.70921765  0.75907872  0.14693204  1
  F  F15  1  0.24092128  0.95013893  0.14693204  1
  F  F16  1  0.04986107  0.29078235  0.14693204  1
  F  F17  1  0.29078235  0.24092128  0.64693204  1
  F  F18  1  0.75907872  0.04986107  0.64693204  1
  F  F19  1  0.95013893  0.70921765  0.64693204  1
  F  F20  1  0.29078235  0.24092128  0.85306796  1
  F  F21  1  0.75907872  0.04986107  0.85306796  1
  F  F22  1  0.95013893  0.70921765  0.85306796  1
  F  F23  1  0.70921765  0.75907872  0.35306796  1
  F  F24  1  0.24092128  0.95013893  0.35306796  1
  F  F25  1  0.04986107  0.29078235  0.35306796  1
  Li  Li26  1  0.10275232  0.16067020  0.16763458  1
  Li  Li27  1  0.83932980  0.94208212  0.16763458  1
  Li  Li28  1  0.05791788  0.89724768  0.16763458  1
  Li  Li29  1  0.89724768  0.83932980  0.66763458  1
  Li  Li30  1  0.16067020  0.05791788  0.66763458  1
  Li  Li31  1  0.94208212  0.10275232  0.66763458  1
  Li  Li32  1  0.89724768  0.83932980  0.83236542  1
  Li  Li33  1  0.16067020  0.05791788  0.83236542  1
  Li  Li34  1  0.94208212  0.10275232  0.83236542  1
  Li  Li35  1  0.10275232  0.16067020  0.33236542  1
  Li  Li36  1  0.83932980  0.94208212  0.33236542  1
  Li  Li37  1  0.05791788  0.89724768  0.33236542  1
  Li  Li38  1  0.17057944  0.44824125  0.56818659  1
  Li  Li39  1  0.55175875  0.72233819  0.56818659  1
  Li  Li40  1  0.27766181  0.82942056  0.56818659  1
  Li  Li41  1  0.82942056  0.55175875  0.06818659  1
  Li  Li42  1  0.44824125  0.27766181  0.06818659  1
  Li  Li43  1  0.72233819  0.17057944  0.06818659  1
  Li  Li44  1  0.82942056  0.55175875  0.43181341  1
  Li  Li45  1  0.44824125  0.27766181  0.43181341  1
  Li  Li46  1  0.72233819  0.17057944  0.43181341  1
  Li  Li47  1  0.17057944  0.44824125  0.93181341  1
  Li  Li48  1  0.55175875  0.72233819  0.93181341  1
  Li  Li49  1  0.27766181  0.82942056  0.93181341  1
  Li  Li50  1  0.66666667  0.33333333  0.25000000  1
  Li  Li51  1  0.33333333  0.66666667  0.75000000  1
