# generated using pymatgen
data_LiCaF3
_symmetry_space_group_name_H-M   'P 1'
_cell_length_a   10.08239979
_cell_length_b   11.47774870
_cell_length_c   15.01798523
_cell_angle_alpha   90.00000000
_cell_angle_beta   90.00000000
_cell_angle_gamma   90.00000000
_symmetry_Int_Tables_number   1
_chemical_formula_structural   LiCaF3
_chemical_formula_sum   'Li18 Ca18 F54'
_cell_volume   1737.93007608
_cell_formula_units_Z   18
loop_
 _symmetry_equiv_pos_site_id
 _symmetry_equiv_pos_as_xyz
  1  'x, y, z'
loop_
 _atom_site_type_symbol
 _atom_site_label
 _atom_site_symmetry_multiplicity
 _atom_site_fract_x
 _atom_site_fract_y
 _atom_site_fract_z
 _atom_site_occupancy
  Ca  Ca0  1  0.88267676  0.40988787  -0.00000000  1
  Ca  Ca1  1  0.11732324  0.59011213  -0.00000000  1
  Ca  Ca2  1  0.61732324  0.90988787  -0.00000000  1
  Ca  Ca3  1  0.38267676  0.09011213  0.00000000  1
  Ca  Ca4  1  0.85368278  0.44779165  0.59075564  1
  Ca  Ca5  1  -0.85368278  -0.44779165  0.59075564  1
  Ca  Ca6  1  -0.35368278  0.94779165  -0.59075564  1
  Ca  Ca7  1  1.35368278  0.05220835  -0.59075564  1
  Ca  Ca8  1  -0.85368278  -0.44779165  -0.59075564  1
  Ca  Ca9  1  0.85368278  0.44779165  -0.59075564  1
  Ca  Ca10  1  1.35368278  0.05220835  0.59075564  1
  Ca  Ca11  1  -0.35368278  0.94779165  0.59075564  1
  Ca  Ca12  1  0.00000000  0.00000000  0.50000000  1
  Ca  Ca13  1  0.50000000  0.50000000  0.50000000  1
  Ca  Ca14  1  0.24814275  0.38263189  0.50000000  1
  Ca  Ca15  1  0.75185725  0.61736811  0.50000000  1
  Ca  Ca16  1  0.25185725  0.88263189  0.50000000  1
  Ca  Ca17  1  0.74814275  0.11736811  0.50000000  1
  F  F18  1  0.26394492  0.81314241  0.78811662  1
  F  F19  1  0.73605508  0.18685759  0.78811662  1
  F  F20  1  0.23605508  0.31314241  0.21188338  1
  F  F21  1  0.76394492  0.68685759  0.21188338  1
  F  F22  1  0.73605508  0.18685759  0.21188338  1
  F  F23  1  0.26394492  0.81314241  0.21188338  1
  F  F24  1  0.76394492  0.68685759  0.78811662  1
  F  F25  1  0.23605508  0.31314241  0.78811662  1
  F  F26  1  0.84962883  0.92861435  0.63828769  1
  F  F27  1  0.15037117  0.07138565  0.63828769  1
  F  F28  1  0.65037117  0.42861435  0.36171231  1
  F  F29  1  0.34962883  0.57138565  0.36171231  1
  F  F30  1  0.15037117  0.07138565  0.36171231  1
  F  F31  1  0.84962883  0.92861435  0.36171231  1
  F  F32  1  0.34962883  0.57138565  0.63828769  1
  F  F33  1  0.65037117  0.42861435  0.63828769  1
  F  F34  1  0.72023421  0.64015473  0.76854382  1
  F  F35  1  0.27976579  0.35984527  0.76854382  1
  F  F36  1  0.77976579  0.14015473  0.23145618  1
  F  F37  1  0.22023421  0.85984527  0.23145618  1
  F  F38  1  0.27976579  0.35984527  0.23145618  1
  F  F39  1  0.72023421  0.64015473  0.23145618  1
  F  F40  1  0.22023421  0.85984527  0.76854382  1
  F  F41  1  0.77976579  0.14015473  0.76854382  1
  F  F42  1  0.14501455  0.90816278  0.95350707  1
  F  F43  1  0.85498545  0.09183722  0.95350707  1
  F  F44  1  0.35498545  0.40816278  0.04649293  1
  F  F45  1  0.64501455  0.59183722  0.04649293  1
  F  F46  1  0.85498545  0.09183722  0.04649293  1
  F  F47  1  0.14501455  0.90816278  0.04649293  1
  F  F48  1  0.64501455  0.59183722  0.95350707  1
  F  F49  1  0.35498545  0.40816278  0.95350707  1
  F  F50  1  0.81022145  0.35797130  0.76307513  1
  F  F51  1  0.18977855  0.64202870  0.76307513  1
  F  F52  1  0.68977855  0.85797130  0.23692487  1
  F  F53  1  0.31022145  0.14202870  0.23692487  1
  F  F54  1  0.18977855  0.64202870  0.23692487  1
  F  F55  1  0.81022145  0.35797130  0.23692487  1
  F  F56  1  0.31022145  0.14202870  0.76307513  1
  F  F57  1  0.68977855  0.85797130  0.76307513  1
  F  F58  1  0.17682465  0.63877910  0.46690251  1
  F  F59  1  0.82317535  0.36122090  0.46690251  1
  F  F60  1  0.32317535  0.13877910  0.53309749  1
  F  F61  1  0.67682465  0.86122090  0.53309749  1
  F  F62  1  0.82317535  0.36122090  0.53309749  1
  F  F63  1  0.17682465  0.63877910  0.53309749  1
  F  F64  1  0.67682465  0.86122090  0.46690251  1
  F  F65  1  0.32317535  0.13877910  0.46690251  1
  F  F66  1  0.00000000  0.50000000  0.50000000  1
  F  F67  1  0.50000000  0.00000000  0.50000000  1
  F  F68  1  0.00000000  0.00000000  0.13015984  1
  F  F69  1  0.50000000  0.50000000  0.86984016  1
  F  F70  1  0.00000000  0.00000000  0.86984016  1
  F  F71  1  0.50000000  0.50000000  0.13015984  1
  Li  Li72  1  0.77889711  0.18423115  0.15388687  1
  Li  Li73  1  0.22110289  0.81576885  0.15388687  1
  Li  Li74  1  0.72110289  0.68423115  0.84611313  1
  Li  Li75  1  0.27889711  0.31576885  0.84611313  1
  Li  Li76  1  0.22110289  0.81576885  0.84611313  1
  Li  Li77  1  0.77889711  0.18423115  0.84611313  1
  Li  Li78  1  0.27889711  0.31576885  0.15388687  1
  Li  Li79  1  0.72110289  0.68423115  0.15388687  1
  Li  Li80  1  0.37633646  0.94959274  0.23166092  1
  Li  Li81  1  0.62366354  0.05040726  0.23166092  1
  Li  Li82  1  0.12366354  0.44959274  0.76833908  1
  Li  Li83  1  0.87633646  0.55040726  0.76833908  1
  Li  Li84  1  0.62366354  0.05040726  0.76833908  1
  Li  Li85  1  0.37633646  0.94959274  0.76833908  1
  Li  Li86  1  0.87633646  0.55040726  0.23166092  1
  Li  Li87  1  0.12366354  0.44959274  0.23166092  1
  Li  Li88  1  0.00000000  0.50000000  -0.00000000  1
  Li  Li89  1  0.50000000  0.00000000  0.00000000  1
