# generated using pymatgen
data_LiF
_symmetry_space_group_name_H-M   'P 1'
_cell_length_a   5.60487629
_cell_length_b   5.60487629
_cell_length_c   25.88515575
_cell_angle_alpha   90.00000000
_cell_angle_beta   90.00000000
_cell_angle_gamma   120.00000000
_symmetry_Int_Tables_number   1
_chemical_formula_structural   LiF
_chemical_formula_sum   'Li19 F19'
_cell_volume   704.22830483
_cell_formula_units_Z   19
loop_
 _symmetry_equiv_pos_site_id
 _symmetry_equiv_pos_as_xyz
  1  'x, y, z'
loop_
 _atom_site_type_symbol
 _atom_site_label
 _atom_site_symmetry_multiplicity
 _atom_site_fract_x
 _atom_site_fract_y
 _atom_site_fract_z
 _atom_site_occupancy
  F  F0  1  0.33333333  0.66666667  -0.00000000  1
  F  F1  1  0.00000000  0.00000000  0.50000000  1
  F  F2  1  0.33333333  0.66666667  0.50000000  1
  F  F3  1  0.44086475  0.46021422  0.42244820  1
  F  F4  1  0.53978578  0.98065053  0.42244820  1
  F  F5  1  0.01934947  0.55913525  0.42244820  1
  F  F6  1  0.53978578  0.55913525  0.57755180  1
  F  F7  1  0.01934947  0.46021422  0.57755180  1
  F  F8  1  0.44086475  0.98065053  0.57755180  1
  F  F9  1  0.26581401  0.06243990  0.47727668  1
  F  F10  1  0.93756010  0.20337411  0.47727668  1
  F  F11  1  0.79662589  0.73418599  0.47727668  1
  F  F12  1  0.93756010  0.73418599  0.52272332  1
  F  F13  1  0.79662589  0.06243990  0.52272332  1
  F  F14  1  0.26581401  0.20337411  0.52272332  1
  F  F15  1  0.51738630  0.48261370  -0.00000000  1
  F  F16  1  0.51738630  0.03477261  0.00000000  1
  F  F17  1  0.96522739  0.48261370  -0.00000000  1
  F  F18  1  0.00000000  0.00000000  0.00000000  1
  Li  Li19  1  0.33333333  0.66666667  0.68693524  1
  Li  Li20  1  0.33333333  0.66666667  0.31306476  1
  Li  Li21  1  0.66666667  0.33333333  0.35726812  1
  Li  Li22  1  0.66666667  0.33333333  0.64273188  1
  Li  Li23  1  0.22443826  0.77556174  0.50000000  1
  Li  Li24  1  0.22443826  0.44887651  0.50000000  1
  Li  Li25  1  0.55112349  0.77556174  0.50000000  1
  Li  Li26  1  0.65628553  0.89854409  0.16762442  1
  Li  Li27  1  -0.89854409  -0.24225857  0.16762442  1
  Li  Li28  1  0.24225857  -0.65628553  0.16762442  1
  Li  Li29  1  -0.89854409  -0.65628553  -0.16762442  1
  Li  Li30  1  0.24225857  0.89854409  -0.16762442  1
  Li  Li31  1  0.65628553  -0.24225857  -0.16762442  1
  Li  Li32  1  0.66666667  0.33333333  0.00000000  1
  Li  Li33  1  0.89998948  0.10001052  0.00000000  1
  Li  Li34  1  0.89998948  0.79997895  -0.00000000  1
  Li  Li35  1  0.20002105  0.10001052  0.00000000  1
  Li  Li36  1  0.00000000  0.00000000  0.24971703  1
  Li  Li37  1  0.00000000  0.00000000  0.75028297  1
