# generated using pymatgen
data_LiF
_symmetry_space_group_name_H-M   'P 1'
_cell_length_a   5.13833623
_cell_length_b   5.13833623
_cell_length_c   11.13161996
_cell_angle_alpha   90.00000000
_cell_angle_beta   90.00000000
_cell_angle_gamma   120.00000000
_symmetry_Int_Tables_number   1
_chemical_formula_structural   LiF
_chemical_formula_sum   'Li17 F17'
_cell_volume   254.52710696
_cell_formula_units_Z   17
loop_
 _symmetry_equiv_pos_site_id
 _symmetry_equiv_pos_as_xyz
  1  'x, y, z'
loop_
 _atom_site_type_symbol
 _atom_site_label
 _atom_site_symmetry_multiplicity
 _atom_site_fract_x
 _atom_site_fract_y
 _atom_site_fract_z
 _atom_site_occupancy
  F  F0  1  0.45688655  0.08117536  0.21581586  1
  F  F1  1  0.91882464  0.37571119  0.21581586  1
  F  F2  1  0.62428881  0.54311345  0.21581586  1
  F  F3  1  0.91882464  0.54311345  0.78418414  1
  F  F4  1  0.62428881  0.08117536  0.78418414  1
  F  F5  1  0.45688655  0.37571119  0.78418414  1
  F  F6  1  0.67332273  0.53296513  0.40492524  1
  F  F7  1  0.46703487  0.14035760  0.40492524  1
  F  F8  1  0.85964240  0.32667727  0.40492524  1
  F  F9  1  0.46703487  0.32667727  0.59507476  1
  F  F10  1  0.85964240  0.53296513  0.59507476  1
  F  F11  1  0.67332273  0.14035760  0.59507476  1
  F  F12  1  0.66666667  0.33333333  0.26108182  1
  F  F13  1  0.66666667  0.33333333  0.73891818  1
  F  F14  1  0.62908329  0.37091671  0.00000000  1
  F  F15  1  0.62908329  0.25816659  0.00000000  1
  F  F16  1  0.74183341  0.37091671  0.00000000  1
  Li  Li17  1  0.00000000  0.00000000  0.00000000  1
  Li  Li18  1  0.66666667  0.33333333  0.50000000  1
  Li  Li19  1  0.33333333  0.66666667  0.50000000  1
  Li  Li20  1  0.00361689  0.18426837  0.37628930  1
  Li  Li21  1  -0.18426837  -0.18065148  0.37628930  1
  Li  Li22  1  0.18065148  -0.00361689  0.37628930  1
  Li  Li23  1  -0.18426837  -0.00361689  -0.37628930  1
  Li  Li24  1  0.18065148  0.18426837  -0.37628930  1
  Li  Li25  1  0.00361689  -0.18065148  -0.37628930  1
  Li  Li26  1  0.02171755  0.49210793  0.67457647  1
  Li  Li27  1  0.50789207  0.52960962  0.67457647  1
  Li  Li28  1  0.47039038  0.97828245  0.67457647  1
  Li  Li29  1  0.50789207  0.97828245  0.32542353  1
  Li  Li30  1  0.47039038  0.49210793  0.32542353  1
  Li  Li31  1  0.02171755  0.52960962  0.32542353  1
  Li  Li32  1  0.00000000  0.00000000  0.50000000  1
  Li  Li33  1  0.33333333  0.66666667  0.00000000  1
