# generated using pymatgen
data_LiF
_symmetry_space_group_name_H-M   'P 1'
_cell_length_a   6.48441855
_cell_length_b   8.28960516
_cell_length_c   7.10240152
_cell_angle_alpha   90.00000000
_cell_angle_beta   90.00000000
_cell_angle_gamma   90.00000000
_symmetry_Int_Tables_number   1
_chemical_formula_structural   LiF
_chemical_formula_sum   'Li16 F16'
_cell_volume   381.77730284
_cell_formula_units_Z   16
loop_
 _symmetry_equiv_pos_site_id
 _symmetry_equiv_pos_as_xyz
  1  'x, y, z'
loop_
 _atom_site_type_symbol
 _atom_site_label
 _atom_site_symmetry_multiplicity
 _atom_site_fract_x
 _atom_site_fract_y
 _atom_site_fract_z
 _atom_site_occupancy
  F  F0  1  0.00000000  0.50000000  0.50000000  1
  F  F1  1  0.50000000  0.00000000  0.50000000  1
  F  F2  1  0.40893014  0.69347355  0.56436983  1
  F  F3  1  0.59106986  0.30652645  0.56436983  1
  F  F4  1  0.09106986  0.19347355  0.43563017  1
  F  F5  1  0.90893014  0.80652645  0.43563017  1
  F  F6  1  0.59106986  0.30652645  0.43563017  1
  F  F7  1  0.40893014  0.69347355  0.43563017  1
  F  F8  1  0.90893014  0.80652645  0.56436983  1
  F  F9  1  0.09106986  0.19347355  0.56436983  1
  F  F10  1  0.24824045  0.18901405  0.50000000  1
  F  F11  1  0.75175955  0.81098595  0.50000000  1
  F  F12  1  0.25175955  0.68901405  0.50000000  1
  F  F13  1  0.74824045  0.31098595  0.50000000  1
  F  F14  1  0.00000000  0.00000000  0.50000000  1
  F  F15  1  0.50000000  0.50000000  0.50000000  1
  Li  Li16  1  0.81226755  0.06262826  0.21256179  1
  Li  Li17  1  -0.81226755  -0.06262826  0.21256179  1
  Li  Li18  1  -0.31226755  0.56262826  -0.21256179  1
  Li  Li19  1  1.31226755  0.43737174  -0.21256179  1
  Li  Li20  1  -0.81226755  -0.06262826  -0.21256179  1
  Li  Li21  1  0.81226755  0.06262826  -0.21256179  1
  Li  Li22  1  1.31226755  0.43737174  0.21256179  1
  Li  Li23  1  -0.31226755  0.56262826  0.21256179  1
  Li  Li24  1  0.30052187  0.27284981  0.40876366  1
  Li  Li25  1  0.69947813  0.72715019  0.40876366  1
  Li  Li26  1  0.19947813  0.77284981  0.59123634  1
  Li  Li27  1  0.80052187  0.22715019  0.59123634  1
  Li  Li28  1  0.69947813  0.72715019  0.59123634  1
  Li  Li29  1  0.30052187  0.27284981  0.59123634  1
  Li  Li30  1  0.80052187  0.22715019  0.40876366  1
  Li  Li31  1  0.19947813  0.77284981  0.40876366  1
