# generated using pymatgen
data_LiYMoP3Se
_symmetry_space_group_name_H-M   'P 1'
_cell_length_a   5.62618189
_cell_length_b   5.65736866
_cell_length_c   7.47676778
_cell_angle_alpha   94.53818753
_cell_angle_beta   99.28396142
_cell_angle_gamma   107.28828553
_symmetry_Int_Tables_number   1
_chemical_formula_structural   LiYMoP3Se
_chemical_formula_sum   'Li1 Y1 Mo1 P3 Se1'
_cell_volume   222.20464163
_cell_formula_units_Z   1
loop_
 _symmetry_equiv_pos_site_id
 _symmetry_equiv_pos_as_xyz
  1  'x, y, z'
loop_
 _atom_site_type_symbol
 _atom_site_label
 _atom_site_symmetry_multiplicity
 _atom_site_fract_x
 _atom_site_fract_y
 _atom_site_fract_z
 _atom_site_occupancy
  Y  Y0  1  0.12500000  0.00000000  0.25000000  1
  P  P1  1  0.00000000  0.00000000  0.00000000  1
  P  P2  1  0.37500000  0.00000000  0.25000000  1
  P  P3  1  0.25000000  0.25000000  0.25000000  1
  Mo  Mo4  1  0.00000000  0.25000000  0.12500000  1
  Se  Se5  1  0.93177219  0.77832438  0.73220630  1
  Li  Li6  1  0.81239594  0.87333114  0.06403440  1
