# generated using pymatgen
data_LiF
_symmetry_space_group_name_H-M   'P 1'
_cell_length_a   7.57509919
_cell_length_b   8.04801486
_cell_length_c   7.81273643
_cell_angle_alpha   90.00000000
_cell_angle_beta   90.00000000
_cell_angle_gamma   90.00000000
_symmetry_Int_Tables_number   1
_chemical_formula_structural   LiF
_chemical_formula_sum   'Li24 F24'
_cell_volume   476.29965482
_cell_formula_units_Z   24
loop_
 _symmetry_equiv_pos_site_id
 _symmetry_equiv_pos_as_xyz
  1  'x, y, z'
loop_
 _atom_site_type_symbol
 _atom_site_label
 _atom_site_symmetry_multiplicity
 _atom_site_fract_x
 _atom_site_fract_y
 _atom_site_fract_z
 _atom_site_occupancy
  F  F0  1  0.00000000  0.00000000  0.50000000  1
  F  F1  1  0.50000000  0.00000000  0.00000000  1
  F  F2  1  0.00000000  0.50000000  0.50000000  1
  F  F3  1  0.50000000  0.50000000  0.00000000  1
  F  F4  1  0.13088513  0.65284101  0.32603816  1
  F  F5  1  0.36911487  0.34715899  0.82603816  1
  F  F6  1  0.86911487  0.15284101  0.67396184  1
  F  F7  1  0.63088513  0.84715899  0.17396184  1
  F  F8  1  0.86911487  0.34715899  0.67396184  1
  F  F9  1  0.63088513  0.65284101  0.17396184  1
  F  F10  1  0.13088513  0.84715899  0.32603816  1
  F  F11  1  0.36911487  0.15284101  0.82603816  1
  F  F12  1  0.93818790  0.03045023  0.35698338  1
  F  F13  1  0.56181210  0.96954977  0.85698338  1
  F  F14  1  0.06181210  0.53045023  0.64301662  1
  F  F15  1  0.43818790  0.46954977  0.14301662  1
  F  F16  1  0.06181210  0.96954977  0.64301662  1
  F  F17  1  0.43818790  0.03045023  0.14301662  1
  F  F18  1  0.93818790  0.46954977  0.35698338  1
  F  F19  1  0.56181210  0.53045023  0.85698338  1
  F  F20  1  0.70724195  0.25000000  0.09887680  1
  F  F21  1  0.79275805  0.75000000  0.59887680  1
  F  F22  1  0.29275805  0.75000000  0.90112320  1
  F  F23  1  0.20724195  0.25000000  0.40112320  1
  Li  Li24  1  0.35879444  0.36248513  0.03035987  1
  Li  Li25  1  0.14120556  -0.36248513  0.53035987  1
  Li  Li26  1  -0.35879444  0.86248513  -0.03035987  1
  Li  Li27  1  0.85879444  0.13751487  0.46964013  1
  Li  Li28  1  -0.35879444  -0.36248513  -0.03035987  1
  Li  Li29  1  0.85879444  0.36248513  0.46964013  1
  Li  Li30  1  0.35879444  0.13751487  0.03035987  1
  Li  Li31  1  0.14120556  0.86248513  0.53035987  1
  Li  Li32  1  0.00000000  0.00000000  0.00000000  1
  Li  Li33  1  0.50000000  0.00000000  0.50000000  1
  Li  Li34  1  0.00000000  0.50000000  0.00000000  1
  Li  Li35  1  0.50000000  0.50000000  0.50000000  1
  Li  Li36  1  0.31242587  0.46764046  0.22932830  1
  Li  Li37  1  0.18757413  0.53235954  0.72932830  1
  Li  Li38  1  0.68757413  0.96764046  0.77067170  1
  Li  Li39  1  0.81242587  0.03235954  0.27067170  1
  Li  Li40  1  0.68757413  0.53235954  0.77067170  1
  Li  Li41  1  0.81242587  0.46764046  0.27067170  1
  Li  Li42  1  0.31242587  0.03235954  0.22932830  1
  Li  Li43  1  0.18757413  0.96764046  0.72932830  1
  Li  Li44  1  0.51977187  0.25000000  0.10158884  1
  Li  Li45  1  0.98022813  0.75000000  0.60158884  1
  Li  Li46  1  0.48022813  0.75000000  0.89841116  1
  Li  Li47  1  0.01977187  0.25000000  0.39841116  1
