# generated using pymatgen
data_LiF
_symmetry_space_group_name_H-M   'P 1'
_cell_length_a   7.69455644
_cell_length_b   11.76664481
_cell_length_c   8.33835015
_cell_angle_alpha   90.00000000
_cell_angle_beta   90.00000000
_cell_angle_gamma   90.00000000
_symmetry_Int_Tables_number   1
_chemical_formula_structural   LiF
_chemical_formula_sum   'Li24 F24'
_cell_volume   754.94682275
_cell_formula_units_Z   24
loop_
 _symmetry_equiv_pos_site_id
 _symmetry_equiv_pos_as_xyz
  1  'x, y, z'
loop_
 _atom_site_type_symbol
 _atom_site_label
 _atom_site_symmetry_multiplicity
 _atom_site_fract_x
 _atom_site_fract_y
 _atom_site_fract_z
 _atom_site_occupancy
  F  F0  1  0.41799432  0.91818294  0.07807179  1
  F  F1  1  0.08200568  0.08181706  0.57807179  1
  F  F2  1  0.58200568  0.41818294  0.92192821  1
  F  F3  1  0.91799432  0.58181706  0.42192821  1
  F  F4  1  0.58200568  0.08181706  0.92192821  1
  F  F5  1  0.91799432  0.91818294  0.42192821  1
  F  F6  1  0.41799432  0.58181706  0.07807179  1
  F  F7  1  0.08200568  0.41818294  0.57807179  1
  F  F8  1  0.72306001  0.85598936  0.78853688  1
  F  F9  1  0.77693999  0.14401064  0.28853688  1
  F  F10  1  0.27693999  0.35598936  0.21146312  1
  F  F11  1  0.22306001  0.64401064  0.71146312  1
  F  F12  1  0.27693999  0.14401064  0.21146312  1
  F  F13  1  0.22306001  0.85598936  0.71146312  1
  F  F14  1  0.72306001  0.64401064  0.78853688  1
  F  F15  1  0.77693999  0.35598936  0.28853688  1
  F  F16  1  0.14710216  0.25000000  0.56051106  1
  F  F17  1  0.35289784  0.75000000  0.06051106  1
  F  F18  1  0.85289784  0.75000000  0.43948894  1
  F  F19  1  0.64710216  0.25000000  0.93948894  1
  F  F20  1  0.36992233  0.25000000  0.34201742  1
  F  F21  1  0.13007767  0.75000000  0.84201742  1
  F  F22  1  0.63007767  0.75000000  0.65798258  1
  F  F23  1  0.86992233  0.25000000  0.15798258  1
  Li  Li24  1  0.00000000  0.00000000  0.00000000  1
  Li  Li25  1  0.50000000  0.00000000  0.50000000  1
  Li  Li26  1  0.00000000  0.50000000  0.00000000  1
  Li  Li27  1  0.50000000  0.50000000  0.50000000  1
  Li  Li28  1  0.31747548  0.32173115  0.74966165  1
  Li  Li29  1  0.18252452  -0.32173115  1.24966165  1
  Li  Li30  1  -0.31747548  0.82173115  -0.74966165  1
  Li  Li31  1  0.81747548  0.17826885  -0.24966165  1
  Li  Li32  1  -0.31747548  -0.32173115  -0.74966165  1
  Li  Li33  1  0.81747548  0.32173115  -0.24966165  1
  Li  Li34  1  0.31747548  0.17826885  0.74966165  1
  Li  Li35  1  0.18252452  0.82173115  1.24966165  1
  Li  Li36  1  0.00000000  0.00000000  0.50000000  1
  Li  Li37  1  0.50000000  0.00000000  0.00000000  1
  Li  Li38  1  0.00000000  0.50000000  0.50000000  1
  Li  Li39  1  0.50000000  0.50000000  0.00000000  1
  Li  Li40  1  0.34399227  0.48664623  0.05473334  1
  Li  Li41  1  0.15600773  0.51335377  0.55473334  1
  Li  Li42  1  0.65600773  0.98664623  0.94526666  1
  Li  Li43  1  0.84399227  0.01335377  0.44526666  1
  Li  Li44  1  0.65600773  0.51335377  0.94526666  1
  Li  Li45  1  0.84399227  0.48664623  0.44526666  1
  Li  Li46  1  0.34399227  0.01335377  0.05473334  1
  Li  Li47  1  0.15600773  0.98664623  0.55473334  1
