# generated using pymatgen
data_Li4TeF2
_symmetry_space_group_name_H-M   'P 1'
_cell_length_a   13.49859561
_cell_length_b   13.49859561
_cell_length_c   13.49859561
_cell_angle_alpha   90.00000000
_cell_angle_beta   90.00000000
_cell_angle_gamma   90.00000000
_symmetry_Int_Tables_number   1
_chemical_formula_structural   Li4TeF2
_chemical_formula_sum   'Li96 Te24 F48'
_cell_volume   2459.60722889
_cell_formula_units_Z   24
loop_
 _symmetry_equiv_pos_site_id
 _symmetry_equiv_pos_as_xyz
  1  'x, y, z'
loop_
 _atom_site_type_symbol
 _atom_site_label
 _atom_site_symmetry_multiplicity
 _atom_site_fract_x
 _atom_site_fract_y
 _atom_site_fract_z
 _atom_site_occupancy
  F  F0  1  0.98077015  0.78115181  0.67528630  1
  F  F1  1  -0.48077015  -0.78115181  1.17528630  1
  F  F2  1  -0.98077015  1.28115181  -0.17528630  1
  F  F3  1  1.48077015  -0.28115181  -0.67528630  1
  F  F4  1  0.67528630  0.98077015  0.78115181  1
  F  F5  1  1.17528630  -0.48077015  -0.78115181  1
  F  F6  1  -0.17528630  -0.98077015  1.28115181  1
  F  F7  1  -0.67528630  1.48077015  -0.28115181  1
  F  F8  1  0.78115181  0.67528630  0.98077015  1
  F  F9  1  -0.78115181  1.17528630  -0.48077015  1
  F  F10  1  1.28115181  -0.17528630  -0.98077015  1
  F  F11  1  -0.28115181  -0.67528630  1.48077015  1
  F  F12  1  1.53115181  1.23077015  -0.42528630  1
  F  F13  1  -0.03115181  -0.23077015  0.07471370  1
  F  F14  1  1.03115181  -0.73077015  1.42528630  1
  F  F15  1  -0.53115181  1.73077015  0.92528630  1
  F  F16  1  1.73077015  0.92528630  -0.53115181  1
  F  F17  1  -0.73077015  1.42528630  1.03115181  1
  F  F18  1  -0.23077015  0.07471370  -0.03115181  1
  F  F19  1  1.23077015  -0.42528630  1.53115181  1
  F  F20  1  1.42528630  1.03115181  -0.73077015  1
  F  F21  1  0.92528630  -0.53115181  1.73077015  1
  F  F22  1  -0.42528630  1.53115181  1.23077015  1
  F  F23  1  0.07471370  -0.03115181  -0.23077015  1
  F  F24  1  1.48077015  1.28115181  1.17528630  1
  F  F25  1  0.01922985  -0.28115181  1.67528630  1
  F  F26  1  -0.48077015  1.78115181  0.32471370  1
  F  F27  1  1.98077015  0.21884819  -0.17528630  1
  F  F28  1  1.17528630  1.48077015  1.28115181  1
  F  F29  1  1.67528630  0.01922985  -0.28115181  1
  F  F30  1  0.32471370  -0.48077015  1.78115181  1
  F  F31  1  -0.17528630  1.98077015  0.21884819  1
  F  F32  1  1.28115181  1.17528630  1.48077015  1
  F  F33  1  -0.28115181  1.67528630  0.01922985  1
  F  F34  1  1.78115181  0.32471370  -0.48077015  1
  F  F35  1  0.21884819  -0.17528630  1.98077015  1
  F  F36  1  2.03115181  1.73077015  0.07471370  1
  F  F37  1  0.46884819  0.26922985  0.57471370  1
  F  F38  1  1.53115181  -0.23077015  1.92528630  1
  F  F39  1  -0.03115181  2.23077015  1.42528630  1
  F  F40  1  2.23077015  1.42528630  -0.03115181  1
  F  F41  1  -0.23077015  1.92528630  1.53115181  1
  F  F42  1  0.26922985  0.57471370  0.46884819  1
  F  F43  1  1.73077015  0.07471370  2.03115181  1
  F  F44  1  1.92528630  1.53115181  -0.23077015  1
  F  F45  1  1.42528630  -0.03115181  2.23077015  1
  F  F46  1  0.07471370  2.03115181  1.73077015  1
  F  F47  1  0.57471370  0.46884819  0.26922985  1
  Li  Li48  1  0.16699435  0.56523800  0.27180028  1
  Li  Li49  1  0.33300565  0.43476200  0.77180028  1
  Li  Li50  1  0.83300565  0.06523800  0.22819972  1
  Li  Li51  1  0.66699435  0.93476200  0.72819972  1
  Li  Li52  1  0.27180028  0.16699435  0.56523800  1
  Li  Li53  1  0.77180028  0.33300565  0.43476200  1
  Li  Li54  1  0.22819972  0.83300565  0.06523800  1
  Li  Li55  1  0.72819972  0.66699435  0.93476200  1
  Li  Li56  1  0.56523800  0.27180028  0.16699435  1
  Li  Li57  1  0.43476200  0.77180028  0.33300565  1
  Li  Li58  1  0.06523800  0.22819972  0.83300565  1
  Li  Li59  1  0.93476200  0.72819972  0.66699435  1
  Li  Li60  1  0.31523800  0.41699435  0.97819972  1
  Li  Li61  1  0.18476200  0.58300565  0.47819972  1
  Li  Li62  1  0.81523800  0.08300565  0.02180028  1
  Li  Li63  1  0.68476200  0.91699435  0.52180028  1
  Li  Li64  1  0.91699435  0.52180028  0.68476200  1
  Li  Li65  1  0.08300565  0.02180028  0.81523800  1
  Li  Li66  1  0.58300565  0.47819972  0.18476200  1
  Li  Li67  1  0.41699435  0.97819972  0.31523800  1
  Li  Li68  1  0.02180028  0.81523800  0.08300565  1
  Li  Li69  1  0.52180028  0.68476200  0.91699435  1
  Li  Li70  1  0.97819972  0.31523800  0.41699435  1
  Li  Li71  1  0.47819972  0.18476200  0.58300565  1
  Li  Li72  1  0.66699435  0.06523800  0.77180028  1
  Li  Li73  1  0.83300565  0.93476200  0.27180028  1
  Li  Li74  1  0.33300565  0.56523800  0.72819972  1
  Li  Li75  1  0.16699435  0.43476200  0.22819972  1
  Li  Li76  1  0.77180028  0.66699435  0.06523800  1
  Li  Li77  1  0.27180028  0.83300565  0.93476200  1
  Li  Li78  1  0.72819972  0.33300565  0.56523800  1
  Li  Li79  1  0.22819972  0.16699435  0.43476200  1
  Li  Li80  1  0.06523800  0.77180028  0.66699435  1
  Li  Li81  1  0.93476200  0.27180028  0.83300565  1
  Li  Li82  1  0.56523800  0.72819972  0.33300565  1
  Li  Li83  1  0.43476200  0.22819972  0.16699435  1
  Li  Li84  1  0.81523800  0.91699435  0.47819972  1
  Li  Li85  1  0.68476200  0.08300565  0.97819972  1
  Li  Li86  1  0.31523800  0.58300565  0.52180028  1
  Li  Li87  1  0.18476200  0.41699435  0.02180028  1
  Li  Li88  1  0.41699435  0.02180028  0.18476200  1
  Li  Li89  1  0.58300565  0.52180028  0.31523800  1
  Li  Li90  1  0.08300565  0.97819972  0.68476200  1
  Li  Li91  1  0.91699435  0.47819972  0.81523800  1
  Li  Li92  1  0.52180028  0.31523800  0.58300565  1
  Li  Li93  1  0.02180028  0.18476200  0.41699435  1
  Li  Li94  1  0.47819972  0.81523800  0.91699435  1
  Li  Li95  1  0.97819972  0.68476200  0.08300565  1
  Li  Li96  1  0.68300321  0.91473197  0.23283411  1
  Li  Li97  1  0.81699679  0.08526803  0.73283411  1
  Li  Li98  1  0.31699679  0.41473197  0.26716589  1
  Li  Li99  1  0.18300321  0.58526803  0.76716589  1
  Li  Li100  1  0.23283411  0.68300321  0.91473197  1
  Li  Li101  1  0.73283411  0.81699679  0.08526803  1
  Li  Li102  1  0.26716589  0.31699679  0.41473197  1
  Li  Li103  1  0.76716589  0.18300321  0.58526803  1
  Li  Li104  1  0.91473197  0.23283411  0.68300321  1
  Li  Li105  1  0.08526803  0.73283411  0.81699679  1
  Li  Li106  1  0.41473197  0.26716589  0.31699679  1
  Li  Li107  1  0.58526803  0.76716589  0.18300321  1
  Li  Li108  1  0.66473197  0.93300321  0.01716589  1
  Li  Li109  1  0.83526803  0.06699679  0.51716589  1
  Li  Li110  1  0.16473197  0.56699679  0.98283411  1
  Li  Li111  1  0.33526803  0.43300321  0.48283411  1
  Li  Li112  1  0.43300321  0.48283411  0.33526803  1
  Li  Li113  1  0.56699679  0.98283411  0.16473197  1
  Li  Li114  1  0.06699679  0.51716589  0.83526803  1
  Li  Li115  1  0.93300321  0.01716589  0.66473197  1
  Li  Li116  1  0.98283411  0.16473197  0.56699679  1
  Li  Li117  1  0.48283411  0.33526803  0.43300321  1
  Li  Li118  1  0.01716589  0.66473197  0.93300321  1
  Li  Li119  1  0.51716589  0.83526803  0.06699679  1
  Li  Li120  1  0.18300321  0.41473197  0.73283411  1
  Li  Li121  1  0.31699679  0.58526803  0.23283411  1
  Li  Li122  1  0.81699679  0.91473197  0.76716589  1
  Li  Li123  1  0.68300321  0.08526803  0.26716589  1
  Li  Li124  1  0.73283411  0.18300321  0.41473197  1
  Li  Li125  1  0.23283411  0.31699679  0.58526803  1
  Li  Li126  1  0.76716589  0.81699679  0.91473197  1
  Li  Li127  1  0.26716589  0.68300321  0.08526803  1
  Li  Li128  1  0.41473197  0.73283411  0.18300321  1
  Li  Li129  1  0.58526803  0.23283411  0.31699679  1
  Li  Li130  1  0.91473197  0.76716589  0.81699679  1
  Li  Li131  1  0.08526803  0.26716589  0.68300321  1
  Li  Li132  1  0.16473197  0.43300321  0.51716589  1
  Li  Li133  1  0.33526803  0.56699679  0.01716589  1
  Li  Li134  1  0.66473197  0.06699679  0.48283411  1
  Li  Li135  1  0.83526803  0.93300321  0.98283411  1
  Li  Li136  1  0.93300321  0.98283411  0.83526803  1
  Li  Li137  1  0.06699679  0.48283411  0.66473197  1
  Li  Li138  1  0.56699679  0.01716589  0.33526803  1
  Li  Li139  1  0.43300321  0.51716589  0.16473197  1
  Li  Li140  1  0.48283411  0.66473197  0.06699679  1
  Li  Li141  1  0.98283411  0.83526803  0.93300321  1
  Li  Li142  1  0.51716589  0.16473197  0.43300321  1
  Li  Li143  1  0.01716589  0.33526803  0.56699679  1
  Te  Te144  1  0.12500000  0.00000000  0.25000000  1
  Te  Te145  1  0.37500000  -0.00000000  0.75000000  1
  Te  Te146  1  0.25000000  0.12500000  -0.00000000  1
  Te  Te147  1  0.75000000  0.37500000  0.00000000  1
  Te  Te148  1  0.00000000  0.25000000  0.12500000  1
  Te  Te149  1  0.00000000  0.75000000  0.37500000  1
  Te  Te150  1  0.62500000  0.50000000  0.75000000  1
  Te  Te151  1  0.87500000  0.50000000  0.25000000  1
  Te  Te152  1  0.75000000  0.62500000  0.50000000  1
  Te  Te153  1  0.25000000  0.87500000  0.50000000  1
  Te  Te154  1  0.50000000  0.75000000  0.62500000  1
  Te  Te155  1  0.50000000  0.25000000  0.87500000  1
  Te  Te156  1  0.62500000  0.00000000  0.25000000  1
  Te  Te157  1  0.87500000  0.00000000  0.75000000  1
  Te  Te158  1  0.25000000  0.62500000  0.00000000  1
  Te  Te159  1  0.75000000  0.87500000  -0.00000000  1
  Te  Te160  1  0.00000000  0.25000000  0.62500000  1
  Te  Te161  1  0.00000000  0.75000000  0.87500000  1
  Te  Te162  1  0.12500000  0.50000000  0.75000000  1
  Te  Te163  1  0.37500000  0.50000000  0.25000000  1
  Te  Te164  1  0.75000000  0.12500000  0.50000000  1
  Te  Te165  1  0.25000000  0.37500000  0.50000000  1
  Te  Te166  1  0.50000000  0.75000000  0.12500000  1
  Te  Te167  1  0.50000000  0.25000000  0.37500000  1
