# generated using pymatgen
data_LiYP2Se
_symmetry_space_group_name_H-M   'P 1'
_cell_length_a   3.85299409
_cell_length_b   4.13104576
_cell_length_c   6.73488040
_cell_angle_alpha   96.76966224
_cell_angle_beta   104.74291697
_cell_angle_gamma   117.19104267
_symmetry_Int_Tables_number   1
_chemical_formula_structural   LiYP2Se
_chemical_formula_sum   'Li2 Y2 P4 Se2'
_cell_volume   88.72998692
_cell_formula_units_Z   2
loop_
 _symmetry_equiv_pos_site_id
 _symmetry_equiv_pos_as_xyz
  1  'x, y, z'
loop_
 _atom_site_type_symbol
 _atom_site_label
 _atom_site_symmetry_multiplicity
 _atom_site_fract_x
 _atom_site_fract_y
 _atom_site_fract_z
 _atom_site_occupancy
  P  P0  1  0.00000000  0.00000000  0.00000000  1
  P  P1  1  0.33300000  0.66700000  0.25000000  1
  P  P2  1  0.66700000  0.33300000  0.50000000  1
  P  P3  1  0.00000000  0.00000000  0.75000000  1
  Se  Se4  1  0.49559031  0.92091544  0.42684548  1
  Se  Se5  1  0.50353397  0.79650870  0.99451693  1
  Li  Li6  1  0.89952358  0.40359576  0.64870473  1
  Li  Li7  1  0.76106381  0.84076163  0.69189173  1
  Y  Y8  1  0.87071430  0.01994900  0.39181262  1
  Y  Y9  1  0.62844518  0.22648664  0.95912901  1
