# generated using pymatgen
data_Li2Y(As2P)2
_symmetry_space_group_name_H-M   'P 1'
_cell_length_a   5.05685774
_cell_length_b   5.06943600
_cell_length_c   7.18619203
_cell_angle_alpha   95.36145405
_cell_angle_beta   101.67613229
_cell_angle_gamma   111.53483004
_symmetry_Int_Tables_number   1
_chemical_formula_structural   Li2Y(As2P)2
_chemical_formula_sum   'Li2 Y1 As4 P2'
_cell_volume   164.94638297
_cell_formula_units_Z   1
loop_
 _symmetry_equiv_pos_site_id
 _symmetry_equiv_pos_as_xyz
  1  'x, y, z'
loop_
 _atom_site_type_symbol
 _atom_site_label
 _atom_site_symmetry_multiplicity
 _atom_site_fract_x
 _atom_site_fract_y
 _atom_site_fract_z
 _atom_site_occupancy
  P  P0  1  0.12500000  0.00000000  0.25000000  1
  P  P1  1  0.00000000  0.00000000  0.00000000  1
  As  As2  1  0.37500000  0.00000000  0.25000000  1
  As  As3  1  0.25000000  0.25000000  0.25000000  1
  As  As4  1  0.00000000  0.25000000  0.12500000  1
  As  As5  1  0.20020456  0.28947547  0.18882774  1
  Li  Li6  1  0.77461004  0.19530382  0.74806512  1
  Li  Li7  1  0.44312616  0.43822716  0.53512923  1
  Y  Y8  1  0.39620907  0.61558285  0.36863665  1
