# generated using pymatgen
data_LiF
_symmetry_space_group_name_H-M   'P 1'
_cell_length_a   6.27567994
_cell_length_b   6.27567994
_cell_length_c   14.14399619
_cell_angle_alpha   90.00000000
_cell_angle_beta   90.00000000
_cell_angle_gamma   120.00000000
_symmetry_Int_Tables_number   1
_chemical_formula_structural   LiF
_chemical_formula_sum   'Li17 F17'
_cell_volume   482.41892387
_cell_formula_units_Z   17
loop_
 _symmetry_equiv_pos_site_id
 _symmetry_equiv_pos_as_xyz
  1  'x, y, z'
loop_
 _atom_site_type_symbol
 _atom_site_label
 _atom_site_symmetry_multiplicity
 _atom_site_fract_x
 _atom_site_fract_y
 _atom_site_fract_z
 _atom_site_occupancy
  F  F0  1  0.33333333  0.66666667  0.50000000  1
  F  F1  1  0.38728056  0.53188415  0.75049694  1
  F  F2  1  0.46811585  0.85539640  0.75049694  1
  F  F3  1  0.14460360  0.61271944  0.75049694  1
  F  F4  1  0.46811585  0.61271944  0.24950306  1
  F  F5  1  0.14460360  0.53188415  0.24950306  1
  F  F6  1  0.38728056  0.85539640  0.24950306  1
  F  F7  1  0.00000000  0.00000000  0.12520196  1
  F  F8  1  0.00000000  0.00000000  0.87479804  1
  F  F9  1  0.65728962  0.50772021  0.68912586  1
  F  F10  1  0.49227979  0.14956941  0.68912586  1
  F  F11  1  0.85043059  0.34271038  0.68912586  1
  F  F12  1  0.49227979  0.34271038  0.31087414  1
  F  F13  1  0.85043059  0.50772021  0.31087414  1
  F  F14  1  0.65728962  0.14956941  0.31087414  1
  F  F15  1  0.33333333  0.66666667  0.90638096  1
  F  F16  1  0.33333333  0.66666667  0.09361904  1
  Li  Li17  1  0.00000000  0.00000000  0.50000000  1
  Li  Li18  1  0.73777942  0.19667848  0.88591928  1
  Li  Li19  1  -0.19667848  0.54110094  0.88591928  1
  Li  Li20  1  -0.54110094  -0.73777942  0.88591928  1
  Li  Li21  1  -0.19667848  -0.73777942  -0.88591928  1
  Li  Li22  1  -0.54110094  0.19667848  -0.88591928  1
  Li  Li23  1  0.73777942  0.54110094  -0.88591928  1
  Li  Li24  1  0.98058314  0.30428787  0.26629320  1
  Li  Li25  1  0.69571213  0.67629527  0.26629320  1
  Li  Li26  1  0.32370473  0.01941686  0.26629320  1
  Li  Li27  1  0.69571213  0.01941686  0.73370680  1
  Li  Li28  1  0.32370473  0.30428787  0.73370680  1
  Li  Li29  1  0.98058314  0.67629527  0.73370680  1
  Li  Li30  1  0.33333333  0.66666667  -0.00000000  1
  Li  Li31  1  0.66666667  0.33333333  0.50000000  1
  Li  Li32  1  0.00000000  0.00000000  0.00000000  1
  Li  Li33  1  0.66666667  0.33333333  -0.00000000  1
