# generated using pymatgen
data_LiF
_symmetry_space_group_name_H-M   'P 1'
_cell_length_a   8.60417146
_cell_length_b   8.60417146
_cell_length_c   7.82555826
_cell_angle_alpha   90.00000000
_cell_angle_beta   90.00000000
_cell_angle_gamma   120.00000000
_symmetry_Int_Tables_number   1
_chemical_formula_structural   LiF
_chemical_formula_sum   'Li20 F20'
_cell_volume   501.72307260
_cell_formula_units_Z   20
loop_
 _symmetry_equiv_pos_site_id
 _symmetry_equiv_pos_as_xyz
  1  'x, y, z'
loop_
 _atom_site_type_symbol
 _atom_site_label
 _atom_site_symmetry_multiplicity
 _atom_site_fract_x
 _atom_site_fract_y
 _atom_site_fract_z
 _atom_site_occupancy
  F  F0  1  0.68855758  0.88680509  0.74337936  1
  F  F1  1  0.11319491  0.80175250  0.74337936  1
  F  F2  1  0.19824750  0.31144242  0.74337936  1
  F  F3  1  0.11319491  0.31144242  0.25662064  1
  F  F4  1  0.19824750  0.88680509  0.25662064  1
  F  F5  1  0.68855758  0.80175250  0.25662064  1
  F  F6  1  0.66666667  0.33333333  0.00000000  1
  F  F7  1  0.27688682  0.74026059  0.64176979  1
  F  F8  1  0.25973941  0.53662623  0.64176979  1
  F  F9  1  0.46337377  0.72311318  0.64176979  1
  F  F10  1  0.25973941  0.72311318  0.35823021  1
  F  F11  1  0.46337377  0.74026059  0.35823021  1
  F  F12  1  0.27688682  0.53662623  0.35823021  1
  F  F13  1  0.83481710  0.76893789  0.01226582  1
  F  F14  1  0.23106211  0.06587920  0.01226582  1
  F  F15  1  0.93412080  0.16518290  0.01226582  1
  F  F16  1  0.23106211  0.16518290  0.98773418  1
  F  F17  1  0.93412080  0.76893789  0.98773418  1
  F  F18  1  0.83481710  0.06587920  0.98773418  1
  F  F19  1  0.00000000  0.00000000  0.50000000  1
  Li  Li20  1  0.60390353  0.46998859  0.67122648  1
  Li  Li21  1  -0.46998859  0.13391494  0.67122648  1
  Li  Li22  1  -0.13391494  -0.60390353  0.67122648  1
  Li  Li23  1  -0.46998859  -0.60390353  -0.67122648  1
  Li  Li24  1  -0.13391494  0.46998859  -0.67122648  1
  Li  Li25  1  0.60390353  0.13391494  -0.67122648  1
  Li  Li26  1  0.46300954  0.84130339  0.63754006  1
  Li  Li27  1  0.15869661  0.62170615  0.63754006  1
  Li  Li28  1  0.37829385  0.53699046  0.63754006  1
  Li  Li29  1  0.15869661  0.53699046  0.36245994  1
  Li  Li30  1  0.37829385  0.84130339  0.36245994  1
  Li  Li31  1  0.46300954  0.62170615  0.36245994  1
  Li  Li32  1  0.57545079  0.42454921  0.50000000  1
  Li  Li33  1  0.57545079  0.15090158  0.50000000  1
  Li  Li34  1  0.84909842  0.42454921  0.50000000  1
  Li  Li35  1  0.66666667  0.33333333  0.50000000  1
  Li  Li36  1  0.53381694  0.46618306  0.00000000  1
  Li  Li37  1  0.53381694  0.06763389  0.00000000  1
  Li  Li38  1  0.93236611  0.46618306  -0.00000000  1
  Li  Li39  1  0.33333333  0.66666667  0.00000000  1
