# generated using pymatgen
data_Li2Cu3P2Se
_symmetry_space_group_name_H-M   'P 1'
_cell_length_a   4.10393482
_cell_length_b   4.41774238
_cell_length_c   6.43685421
_cell_angle_alpha   95.61723054
_cell_angle_beta   101.48907516
_cell_angle_gamma   111.30260487
_symmetry_Int_Tables_number   1
_chemical_formula_structural   Li2Cu3P2Se
_chemical_formula_sum   'Li2 Cu3 P2 Se1'
_cell_volume   104.68006580
_cell_formula_units_Z   1
loop_
 _symmetry_equiv_pos_site_id
 _symmetry_equiv_pos_as_xyz
  1  'x, y, z'
loop_
 _atom_site_type_symbol
 _atom_site_label
 _atom_site_symmetry_multiplicity
 _atom_site_fract_x
 _atom_site_fract_y
 _atom_site_fract_z
 _atom_site_occupancy
  P  P0  1  0.12500000  0.12500000  0.12500000  1
  P  P1  1  0.50000000  0.50000000  0.50000000  1
  Se  Se2  1  0.25000000  0.25000000  0.25000000  1
  Li  Li3  1  0.75000000  0.75000000  0.75000000  1
  Li  Li4  1  0.56716872  0.08993656  0.33894107  1
  Cu  Cu5  1  0.97303969  0.51160319  0.34585005  1
  Cu  Cu6  1  0.79749947  0.48829695  0.98873794  1
  Cu  Cu7  1  0.07193607  0.68159184  0.33775921  1
