# generated using pymatgen
data_Li2YP3
_symmetry_space_group_name_H-M   'P 1'
_cell_length_a   4.14673074
_cell_length_b   4.31291535
_cell_length_c   6.83247189
_cell_angle_alpha   96.51969206
_cell_angle_beta   104.19853389
_cell_angle_gamma   116.18701181
_symmetry_Int_Tables_number   1
_chemical_formula_structural   Li2YP3
_chemical_formula_sum   'Li2 Y1 P3'
_cell_volume   102.79055218
_cell_formula_units_Z   1
loop_
 _symmetry_equiv_pos_site_id
 _symmetry_equiv_pos_as_xyz
  1  'x, y, z'
loop_
 _atom_site_type_symbol
 _atom_site_label
 _atom_site_symmetry_multiplicity
 _atom_site_fract_x
 _atom_site_fract_y
 _atom_site_fract_z
 _atom_site_occupancy
  P  P0  1  0.12500000  0.00000000  0.25000000  1
  P  P1  1  0.00000000  0.00000000  0.00000000  1
  P  P2  1  0.37500000  0.00000000  0.25000000  1
  Li  Li3  1  0.25000000  0.25000000  0.25000000  1
  Li  Li4  1  0.00000000  0.25000000  0.12500000  1
  Y  Y5  1  0.76700720  0.48213437  0.93931725  1
