# generated using pymatgen
data_LiF
_symmetry_space_group_name_H-M   'P 1'
_cell_length_a   14.05512081
_cell_length_b   14.05512081
_cell_length_c   4.34257496
_cell_angle_alpha   90.00000000
_cell_angle_beta   90.00000000
_cell_angle_gamma   120.00000000
_symmetry_Int_Tables_number   1
_chemical_formula_structural   LiF
_chemical_formula_sum   'Li29 F29'
_cell_volume   742.92867476
_cell_formula_units_Z   29
loop_
 _symmetry_equiv_pos_site_id
 _symmetry_equiv_pos_as_xyz
  1  'x, y, z'
loop_
 _atom_site_type_symbol
 _atom_site_label
 _atom_site_symmetry_multiplicity
 _atom_site_fract_x
 _atom_site_fract_y
 _atom_site_fract_z
 _atom_site_occupancy
  F  F0  1  0.65543149  0.18870642  0.22710955  1
  F  F1  1  0.81129358  0.46672508  0.22710955  1
  F  F2  1  0.53327492  0.34456851  0.22710955  1
  F  F3  1  0.81129358  0.34456851  0.77289045  1
  F  F4  1  0.53327492  0.18870642  0.77289045  1
  F  F5  1  0.65543149  0.46672508  0.77289045  1
  F  F6  1  0.66666667  0.33333333  0.00000000  1
  F  F7  1  0.33333333  0.66666667  0.00000000  1
  F  F8  1  0.63225503  0.34783888  0.11696268  1
  F  F9  1  0.65216112  0.28441615  0.11696268  1
  F  F10  1  0.71558385  0.36774497  0.11696268  1
  F  F11  1  0.65216112  0.36774497  0.88303732  1
  F  F12  1  0.71558385  0.34783888  0.88303732  1
  F  F13  1  0.63225503  0.28441615  0.88303732  1
  F  F14  1  0.71531593  0.47649212  0.42876658  1
  F  F15  1  0.52350788  0.23882380  0.42876658  1
  F  F16  1  0.76117620  0.28468407  0.42876658  1
  F  F17  1  0.52350788  0.28468407  0.57123342  1
  F  F18  1  0.76117620  0.47649212  0.57123342  1
  F  F19  1  0.71531593  0.23882380  0.57123342  1
  F  F20  1  0.88256898  0.15691746  0.93469328  1
  F  F21  1  0.84308254  0.72565153  0.93469328  1
  F  F22  1  0.27434847  0.11743102  0.93469328  1
  F  F23  1  0.84308254  0.11743102  0.06530672  1
  F  F24  1  0.27434847  0.15691746  0.06530672  1
  F  F25  1  0.88256898  0.72565153  0.06530672  1
  F  F26  1  0.25737730  0.74262270  0.50000000  1
  F  F27  1  0.25737730  0.51475460  0.50000000  1
  F  F28  1  0.48524540  0.74262270  0.50000000  1
  Li  Li29  1  0.04379992  0.95620008  0.50000000  1
  Li  Li30  1  0.04379992  0.08759984  0.50000000  1
  Li  Li31  1  0.91240016  0.95620008  0.50000000  1
  Li  Li32  1  0.66666667  0.33333333  0.50000000  1
  Li  Li33  1  0.33333333  0.66666667  0.50000000  1
  Li  Li34  1  0.27911864  0.36817320  0.54211825  1
  Li  Li35  1  -0.36817320  -0.08905456  0.54211825  1
  Li  Li36  1  0.08905456  -0.27911864  0.54211825  1
  Li  Li37  1  -0.36817320  -0.27911864  -0.54211825  1
  Li  Li38  1  0.08905456  0.36817320  -0.54211825  1
  Li  Li39  1  0.27911864  -0.08905456  -0.54211825  1
  Li  Li40  1  0.58890536  0.74997411  0.96766837  1
  Li  Li41  1  0.25002589  0.83893125  0.96766837  1
  Li  Li42  1  0.16106875  0.41109464  0.96766837  1
  Li  Li43  1  0.25002589  0.41109464  0.03233163  1
  Li  Li44  1  0.16106875  0.74997411  0.03233163  1
  Li  Li45  1  0.58890536  0.83893125  0.03233163  1
  Li  Li46  1  0.83835355  0.72486467  0.63642796  1
  Li  Li47  1  0.27513533  0.11348888  0.63642796  1
  Li  Li48  1  0.88651112  0.16164645  0.63642796  1
  Li  Li49  1  0.27513533  0.16164645  0.36357204  1
  Li  Li50  1  0.88651112  0.72486467  0.36357204  1
  Li  Li51  1  0.83835355  0.11348888  0.36357204  1
  Li  Li52  1  0.97350867  0.74567898  0.98034963  1
  Li  Li53  1  0.25432102  0.22782969  0.98034963  1
  Li  Li54  1  0.77217031  0.02649133  0.98034963  1
  Li  Li55  1  0.25432102  0.02649133  0.01965037  1
  Li  Li56  1  0.77217031  0.74567898  0.01965037  1
  Li  Li57  1  0.97350867  0.22782969  0.01965037  1
