# generated using pymatgen
data_LiF
_symmetry_space_group_name_H-M   'P 1'
_cell_length_a   9.05911703
_cell_length_b   7.35013015
_cell_length_c   9.18810295
_cell_angle_alpha   90.00000000
_cell_angle_beta   90.00000000
_cell_angle_gamma   90.00000000
_symmetry_Int_Tables_number   1
_chemical_formula_structural   LiF
_chemical_formula_sum   'Li24 F24'
_cell_volume   611.79616685
_cell_formula_units_Z   24
loop_
 _symmetry_equiv_pos_site_id
 _symmetry_equiv_pos_as_xyz
  1  'x, y, z'
loop_
 _atom_site_type_symbol
 _atom_site_label
 _atom_site_symmetry_multiplicity
 _atom_site_fract_x
 _atom_site_fract_y
 _atom_site_fract_z
 _atom_site_occupancy
  F  F0  1  0.90524711  0.25000000  0.39693151  1
  F  F1  1  0.59475289  0.75000000  0.89693151  1
  F  F2  1  0.09475289  0.75000000  0.60306849  1
  F  F3  1  0.40524711  0.25000000  0.10306849  1
  F  F4  1  0.29190933  0.36039262  0.54366216  1
  F  F5  1  0.20809067  0.63960738  0.04366216  1
  F  F6  1  0.70809067  0.86039262  0.45633784  1
  F  F7  1  0.79190933  0.13960738  0.95633784  1
  F  F8  1  0.70809067  0.63960738  0.45633784  1
  F  F9  1  0.79190933  0.36039262  0.95633784  1
  F  F10  1  0.29190933  0.13960738  0.54366216  1
  F  F11  1  0.20809067  0.86039262  0.04366216  1
  F  F12  1  0.00000000  0.00000000  0.50000000  1
  F  F13  1  0.50000000  0.00000000  0.00000000  1
  F  F14  1  0.00000000  0.50000000  0.50000000  1
  F  F15  1  0.50000000  0.50000000  0.00000000  1
  F  F16  1  0.27257208  0.91264346  0.95013214  1
  F  F17  1  0.22742792  0.08735654  0.45013214  1
  F  F18  1  0.72742792  0.41264346  0.04986786  1
  F  F19  1  0.77257208  0.58735654  0.54986786  1
  F  F20  1  0.72742792  0.08735654  0.04986786  1
  F  F21  1  0.77257208  0.91264346  0.54986786  1
  F  F22  1  0.27257208  0.58735654  0.95013214  1
  F  F23  1  0.22742792  0.41264346  0.45013214  1
  Li  Li24  1  0.00000000  0.00000000  0.00000000  1
  Li  Li25  1  0.50000000  0.00000000  0.50000000  1
  Li  Li26  1  0.00000000  0.50000000  0.00000000  1
  Li  Li27  1  0.50000000  0.50000000  0.50000000  1
  Li  Li28  1  0.73115370  0.41593782  0.63949550  1
  Li  Li29  1  -0.23115370  -0.41593782  1.13949550  1
  Li  Li30  1  -0.73115370  0.91593782  -0.63949550  1
  Li  Li31  1  1.23115370  0.08406218  -0.13949550  1
  Li  Li32  1  -0.73115370  -0.41593782  -0.63949550  1
  Li  Li33  1  1.23115370  0.41593782  -0.13949550  1
  Li  Li34  1  0.73115370  0.08406218  0.63949550  1
  Li  Li35  1  -0.23115370  0.91593782  1.13949550  1
  Li  Li36  1  0.70550256  0.25000000  0.56440154  1
  Li  Li37  1  0.79449744  0.75000000  0.06440154  1
  Li  Li38  1  0.29449744  0.75000000  0.43559846  1
  Li  Li39  1  0.20550256  0.25000000  0.93559846  1
  Li  Li40  1  0.65453338  0.60484268  0.55218614  1
  Li  Li41  1  0.84546662  0.39515732  0.05218614  1
  Li  Li42  1  0.34546662  0.10484268  0.44781386  1
  Li  Li43  1  0.15453338  0.89515732  0.94781386  1
  Li  Li44  1  0.34546662  0.39515732  0.44781386  1
  Li  Li45  1  0.15453338  0.60484268  0.94781386  1
  Li  Li46  1  0.65453338  0.89515732  0.55218614  1
  Li  Li47  1  0.84546662  0.10484268  0.05218614  1
