# generated using pymatgen
data_LiF
_symmetry_space_group_name_H-M   'P 1'
_cell_length_a   15.48899125
_cell_length_b   15.48899125
_cell_length_c   5.89566315
_cell_angle_alpha   90.00000000
_cell_angle_beta   90.00000000
_cell_angle_gamma   120.00000000
_symmetry_Int_Tables_number   1
_chemical_formula_structural   LiF
_chemical_formula_sum   'Li36 F36'
_cell_volume   1224.92518182
_cell_formula_units_Z   36
loop_
 _symmetry_equiv_pos_site_id
 _symmetry_equiv_pos_as_xyz
  1  'x, y, z'
loop_
 _atom_site_type_symbol
 _atom_site_label
 _atom_site_symmetry_multiplicity
 _atom_site_fract_x
 _atom_site_fract_y
 _atom_site_fract_z
 _atom_site_occupancy
  F  F0  1  0.50000000  -0.00000000  0.00000000  1
  F  F1  1  0.00000000  0.50000000  0.00000000  1
  F  F2  1  0.50000000  0.50000000  0.00000000  1
  F  F3  1  0.00000000  0.50000000  0.50000000  1
  F  F4  1  0.50000000  -0.00000000  0.50000000  1
  F  F5  1  0.50000000  0.50000000  0.50000000  1
  F  F6  1  0.16666667  0.33333333  0.33333333  1
  F  F7  1  0.66666667  0.83333333  0.33333333  1
  F  F8  1  0.16666667  0.83333333  0.33333333  1
  F  F9  1  0.66666667  0.83333333  0.83333333  1
  F  F10  1  0.16666667  0.33333333  0.83333333  1
  F  F11  1  0.16666667  0.83333333  0.83333333  1
  F  F12  1  0.83333333  0.66666667  0.66666667  1
  F  F13  1  0.33333333  0.16666667  0.66666667  1
  F  F14  1  0.83333333  0.16666667  0.66666667  1
  F  F15  1  0.33333333  0.16666667  0.16666667  1
  F  F16  1  0.83333333  0.66666667  0.16666667  1
  F  F17  1  0.83333333  0.16666667  0.16666667  1
  F  F18  1  0.00000000  0.00000000  0.25000000  1
  F  F19  1  0.00000000  0.00000000  0.75000000  1
  F  F20  1  0.66666667  0.33333333  0.58333333  1
  F  F21  1  0.66666667  0.33333333  0.08333333  1
  F  F22  1  0.33333333  0.66666667  0.91666667  1
  F  F23  1  0.33333333  0.66666667  0.41666667  1
  F  F24  1  0.00000000  0.00000000  0.42877379  1
  F  F25  1  0.00000000  0.00000000  0.07122621  1
  F  F26  1  0.00000000  0.00000000  0.57122621  1
  F  F27  1  0.00000000  0.00000000  0.92877379  1
  F  F28  1  0.66666667  0.33333333  0.76210712  1
  F  F29  1  0.66666667  0.33333333  0.40455955  1
  F  F30  1  0.66666667  0.33333333  0.90455955  1
  F  F31  1  0.66666667  0.33333333  0.26210712  1
  F  F32  1  0.33333333  0.66666667  0.09544045  1
  F  F33  1  0.33333333  0.66666667  0.73789288  1
  F  F34  1  0.33333333  0.66666667  0.23789288  1
  F  F35  1  0.33333333  0.66666667  0.59544045  1
  Li  Li36  1  0.21658413  0.55025879  0.25253279  1
  Li  Li37  1  -0.55025879  -0.33367466  0.25253279  1
  Li  Li38  1  0.33367466  -0.21658413  0.25253279  1
  Li  Li39  1  0.55025879  0.21658413  0.24746721  1
  Li  Li40  1  -0.33367466  -0.55025879  0.24746721  1
  Li  Li41  1  -0.21658413  0.33367466  0.24746721  1
  Li  Li42  1  -0.21658413  -0.55025879  -0.25253279  1
  Li  Li43  1  0.55025879  0.33367466  -0.25253279  1
  Li  Li44  1  -0.33367466  0.21658413  -0.25253279  1
  Li  Li45  1  -0.55025879  -0.21658413  0.75253279  1
  Li  Li46  1  0.33367466  0.55025879  0.75253279  1
  Li  Li47  1  0.21658413  -0.33367466  0.75253279  1
  Li  Li48  1  0.88325080  0.88359213  0.58586612  1
  Li  Li49  1  0.11640787  -0.00034132  0.58586612  1
  Li  Li50  1  1.00034132  0.11674920  0.58586612  1
  Li  Li51  1  1.21692546  0.54991747  0.58080055  1
  Li  Li52  1  0.33299201  -0.21692546  0.58080055  1
  Li  Li53  1  0.45008253  0.66700799  0.58080055  1
  Li  Li54  1  0.45008253  -0.21692546  0.08080055  1
  Li  Li55  1  1.21692546  0.66700799  0.08080055  1
  Li  Li56  1  0.33299201  0.54991747  0.08080055  1
  Li  Li57  1  0.11640787  0.11674920  1.08586612  1
  Li  Li58  1  1.00034132  0.88359213  1.08586612  1
  Li  Li59  1  0.88325080  -0.00034132  1.08586612  1
  Li  Li60  1  0.54991747  1.21692546  0.91919945  1
  Li  Li61  1  -0.21692546  0.33299201  0.91919945  1
  Li  Li62  1  0.66700799  0.45008253  0.91919945  1
  Li  Li63  1  0.88359213  0.88325080  0.91413388  1
  Li  Li64  1  -0.00034132  0.11640787  0.91413388  1
  Li  Li65  1  0.11674920  1.00034132  0.91413388  1
  Li  Li66  1  0.11674920  0.11640787  0.41413388  1
  Li  Li67  1  0.88359213  1.00034132  0.41413388  1
  Li  Li68  1  -0.00034132  0.88325080  0.41413388  1
  Li  Li69  1  -0.21692546  0.45008253  1.41919945  1
  Li  Li70  1  0.66700799  1.21692546  1.41919945  1
  Li  Li71  1  0.54991747  0.33299201  1.41919945  1
