# generated using pymatgen
data_LiF
_symmetry_space_group_name_H-M   'P 1'
_cell_length_a   8.12930406
_cell_length_b   16.62291245
_cell_length_c   11.25534024
_cell_angle_alpha   90.00000000
_cell_angle_beta   90.00000000
_cell_angle_gamma   90.00000000
_symmetry_Int_Tables_number   1
_chemical_formula_structural   LiF
_chemical_formula_sum   'Li48 F48'
_cell_volume   1520.96462594
_cell_formula_units_Z   48
loop_
 _symmetry_equiv_pos_site_id
 _symmetry_equiv_pos_as_xyz
  1  'x, y, z'
loop_
 _atom_site_type_symbol
 _atom_site_label
 _atom_site_symmetry_multiplicity
 _atom_site_fract_x
 _atom_site_fract_y
 _atom_site_fract_z
 _atom_site_occupancy
  F  F0  1  0.32118031  0.25000000  0.89006755  1
  F  F1  1  0.17881969  0.75000000  0.39006755  1
  F  F2  1  0.67881969  0.75000000  0.10993245  1
  F  F3  1  0.82118031  0.25000000  0.60993245  1
  F  F4  1  0.41970004  0.46089559  0.11390692  1
  F  F5  1  0.08029996  0.53910441  0.61390692  1
  F  F6  1  0.58029996  0.96089559  0.88609308  1
  F  F7  1  0.91970004  0.03910441  0.38609308  1
  F  F8  1  0.58029996  0.53910441  0.88609308  1
  F  F9  1  0.91970004  0.46089559  0.38609308  1
  F  F10  1  0.41970004  0.03910441  0.11390692  1
  F  F11  1  0.08029996  0.96089559  0.61390692  1
  F  F12  1  0.07631645  0.71372185  0.50521511  1
  F  F13  1  0.42368355  0.28627815  0.00521511  1
  F  F14  1  0.92368355  0.21372185  0.49478489  1
  F  F15  1  0.57631645  0.78627815  0.99478489  1
  F  F16  1  0.92368355  0.28627815  0.49478489  1
  F  F17  1  0.57631645  0.71372185  0.99478489  1
  F  F18  1  0.07631645  0.78627815  0.50521511  1
  F  F19  1  0.42368355  0.21372185  0.00521511  1
  F  F20  1  0.85760350  0.64305844  0.19294253  1
  F  F21  1  0.64239650  0.35694156  0.69294253  1
  F  F22  1  0.14239650  0.14305844  0.80705747  1
  F  F23  1  0.35760350  0.85694156  0.30705747  1
  F  F24  1  0.14239650  0.35694156  0.80705747  1
  F  F25  1  0.35760350  0.64305844  0.30705747  1
  F  F26  1  0.85760350  0.85694156  0.19294253  1
  F  F27  1  0.64239650  0.14305844  0.69294253  1
  F  F28  1  0.33279957  0.25000000  0.75682714  1
  F  F29  1  0.16720043  0.75000000  0.25682714  1
  F  F30  1  0.66720043  0.75000000  0.24317286  1
  F  F31  1  0.83279957  0.25000000  0.74317286  1
  F  F32  1  0.25047836  0.93767885  0.19411885  1
  F  F33  1  0.24952164  0.06232115  0.69411885  1
  F  F34  1  0.74952164  0.43767885  0.80588115  1
  F  F35  1  0.75047836  0.56232115  0.30588115  1
  F  F36  1  0.74952164  0.06232115  0.80588115  1
  F  F37  1  0.75047836  0.93767885  0.30588115  1
  F  F38  1  0.25047836  0.56232115  0.19411885  1
  F  F39  1  0.24952164  0.43767885  0.69411885  1
  F  F40  1  0.15143354  0.70753082  0.98090367  1
  F  F41  1  0.34856646  0.29246918  0.48090367  1
  F  F42  1  0.84856646  0.20753082  0.01909633  1
  F  F43  1  0.65143354  0.79246918  0.51909633  1
  F  F44  1  0.84856646  0.29246918  0.01909633  1
  F  F45  1  0.65143354  0.70753082  0.51909633  1
  F  F46  1  0.15143354  0.79246918  0.98090367  1
  F  F47  1  0.34856646  0.20753082  0.48090367  1
  Li  Li48  1  0.10675668  0.25000000  0.98548305  1
  Li  Li49  1  0.39324332  0.75000000  0.48548305  1
  Li  Li50  1  0.89324332  0.75000000  0.01451695  1
  Li  Li51  1  0.60675668  0.25000000  0.51451695  1
  Li  Li52  1  0.10784048  0.25000000  0.75101332  1
  Li  Li53  1  0.39215952  0.75000000  0.25101332  1
  Li  Li54  1  0.89215952  0.75000000  0.24898668  1
  Li  Li55  1  0.60784048  0.25000000  0.74898668  1
  Li  Li56  1  0.79399391  0.43984885  0.50185693  1
  Li  Li57  1  -0.29399391  -0.43984885  1.00185693  1
  Li  Li58  1  -0.79399391  0.93984885  -0.50185693  1
  Li  Li59  1  1.29399391  0.06015115  -0.00185693  1
  Li  Li60  1  -0.79399391  -0.43984885  -0.50185693  1
  Li  Li61  1  1.29399391  0.43984885  -0.00185693  1
  Li  Li62  1  0.79399391  0.06015115  0.50185693  1
  Li  Li63  1  -0.29399391  0.93984885  1.00185693  1
  Li  Li64  1  0.19531950  0.70365804  0.88756012  1
  Li  Li65  1  0.30468050  0.29634196  0.38756012  1
  Li  Li66  1  0.80468050  0.20365804  0.11243988  1
  Li  Li67  1  0.69531950  0.79634196  0.61243988  1
  Li  Li68  1  0.80468050  0.29634196  0.11243988  1
  Li  Li69  1  0.69531950  0.70365804  0.61243988  1
  Li  Li70  1  0.19531950  0.79634196  0.88756012  1
  Li  Li71  1  0.30468050  0.20365804  0.38756012  1
  Li  Li72  1  0.47604567  0.66994749  0.03412773  1
  Li  Li73  1  0.02395433  0.33005251  0.53412773  1
  Li  Li74  1  0.52395433  0.16994749  0.96587227  1
  Li  Li75  1  0.97604567  0.83005251  0.46587227  1
  Li  Li76  1  0.52395433  0.33005251  0.96587227  1
  Li  Li77  1  0.97604567  0.66994749  0.46587227  1
  Li  Li78  1  0.47604567  0.83005251  0.03412773  1
  Li  Li79  1  0.02395433  0.16994749  0.53412773  1
  Li  Li80  1  0.86866030  0.02942655  0.19512481  1
  Li  Li81  1  0.63133970  0.97057345  0.69512481  1
  Li  Li82  1  0.13133970  0.52942655  0.80487519  1
  Li  Li83  1  0.36866030  0.47057345  0.30487519  1
  Li  Li84  1  0.13133970  0.97057345  0.80487519  1
  Li  Li85  1  0.36866030  0.02942655  0.30487519  1
  Li  Li86  1  0.86866030  0.47057345  0.19512481  1
  Li  Li87  1  0.63133970  0.52942655  0.69512481  1
  Li  Li88  1  0.00000000  0.00000000  0.00000000  1
  Li  Li89  1  0.50000000  0.00000000  0.50000000  1
  Li  Li90  1  0.00000000  0.50000000  -0.00000000  1
  Li  Li91  1  0.50000000  0.50000000  0.50000000  1
  Li  Li92  1  0.00000000  0.00000000  0.50000000  1
  Li  Li93  1  0.50000000  0.00000000  0.00000000  1
  Li  Li94  1  0.00000000  0.50000000  0.50000000  1
  Li  Li95  1  0.50000000  0.50000000  -0.00000000  1
