# generated using pymatgen
data_LiF
_symmetry_space_group_name_H-M   'P 1'
_cell_length_a   6.58064737
_cell_length_b   12.00127384
_cell_length_c   6.33921580
_cell_angle_alpha   90.00000000
_cell_angle_beta   90.00000000
_cell_angle_gamma   90.00000000
_symmetry_Int_Tables_number   1
_chemical_formula_structural   LiF
_chemical_formula_sum   'Li24 F24'
_cell_volume   500.64686537
_cell_formula_units_Z   24
loop_
 _symmetry_equiv_pos_site_id
 _symmetry_equiv_pos_as_xyz
  1  'x, y, z'
loop_
 _atom_site_type_symbol
 _atom_site_label
 _atom_site_symmetry_multiplicity
 _atom_site_fract_x
 _atom_site_fract_y
 _atom_site_fract_z
 _atom_site_occupancy
  F  F0  1  0.34595902  0.13134879  0.81111037  1
  F  F1  1  0.15404098  0.86865121  0.31111037  1
  F  F2  1  0.65404098  0.63134879  0.18888963  1
  F  F3  1  0.84595902  0.36865121  0.68888963  1
  F  F4  1  0.65404098  0.86865121  0.18888963  1
  F  F5  1  0.84595902  0.13134879  0.68888963  1
  F  F6  1  0.34595902  0.36865121  0.81111037  1
  F  F7  1  0.15404098  0.63134879  0.31111037  1
  F  F8  1  0.16043926  0.92379974  0.00678333  1
  F  F9  1  0.33956074  0.07620026  0.50678333  1
  F  F10  1  0.83956074  0.42379974  0.99321667  1
  F  F11  1  0.66043926  0.57620026  0.49321667  1
  F  F12  1  0.83956074  0.07620026  0.99321667  1
  F  F13  1  0.66043926  0.92379974  0.49321667  1
  F  F14  1  0.16043926  0.57620026  0.00678333  1
  F  F15  1  0.33956074  0.42379974  0.50678333  1
  F  F16  1  0.92682685  0.64922825  0.43244981  1
  F  F17  1  0.57317315  0.35077175  0.93244981  1
  F  F18  1  0.07317315  0.14922825  0.56755019  1
  F  F19  1  0.42682685  0.85077175  0.06755019  1
  F  F20  1  0.07317315  0.35077175  0.56755019  1
  F  F21  1  0.42682685  0.64922825  0.06755019  1
  F  F22  1  0.92682685  0.85077175  0.43244981  1
  F  F23  1  0.57317315  0.14922825  0.93244981  1
  Li  Li24  1  0.00000000  0.00000000  0.50000000  1
  Li  Li25  1  0.50000000  0.00000000  0.00000000  1
  Li  Li26  1  0.00000000  0.50000000  0.50000000  1
  Li  Li27  1  0.50000000  0.50000000  0.00000000  1
  Li  Li28  1  0.72392353  0.04743740  0.60243789  1
  Li  Li29  1  -0.22392353  -0.04743740  1.10243789  1
  Li  Li30  1  -0.72392353  0.54743740  -0.60243789  1
  Li  Li31  1  1.22392353  0.45256260  -0.10243789  1
  Li  Li32  1  -0.72392353  -0.04743740  -0.60243789  1
  Li  Li33  1  1.22392353  0.04743740  -0.10243789  1
  Li  Li34  1  0.72392353  0.45256260  0.60243789  1
  Li  Li35  1  -0.22392353  0.54743740  1.10243789  1
  Li  Li36  1  0.78876869  0.25000000  0.08644016  1
  Li  Li37  1  0.71123131  0.75000000  0.58644016  1
  Li  Li38  1  0.21123131  0.75000000  0.91355984  1
  Li  Li39  1  0.28876869  0.25000000  0.41355984  1
  Li  Li40  1  0.09059659  0.99159440  0.23130950  1
  Li  Li41  1  0.40940341  0.00840560  0.73130950  1
  Li  Li42  1  0.90940341  0.49159440  0.76869050  1
  Li  Li43  1  0.59059659  0.50840560  0.26869050  1
  Li  Li44  1  0.90940341  0.00840560  0.76869050  1
  Li  Li45  1  0.59059659  0.99159440  0.26869050  1
  Li  Li46  1  0.09059659  0.50840560  0.23130950  1
  Li  Li47  1  0.40940341  0.49159440  0.73130950  1
