# generated using pymatgen
data_LiF
_symmetry_space_group_name_H-M   'P 1'
_cell_length_a   13.98572796
_cell_length_b   4.25662303
_cell_length_c   11.88562033
_cell_angle_alpha   90.00000000
_cell_angle_beta   90.00000000
_cell_angle_gamma   90.00000000
_symmetry_Int_Tables_number   1
_chemical_formula_structural   LiF
_chemical_formula_sum   'Li24 F24'
_cell_volume   707.57441263
_cell_formula_units_Z   24
loop_
 _symmetry_equiv_pos_site_id
 _symmetry_equiv_pos_as_xyz
  1  'x, y, z'
loop_
 _atom_site_type_symbol
 _atom_site_label
 _atom_site_symmetry_multiplicity
 _atom_site_fract_x
 _atom_site_fract_y
 _atom_site_fract_z
 _atom_site_occupancy
  F  F0  1  0.09707027  0.93519875  0.47930137  1
  F  F1  1  0.40292973  0.06480125  0.97930137  1
  F  F2  1  0.90292973  0.43519875  0.52069863  1
  F  F3  1  0.59707027  0.56480125  0.02069863  1
  F  F4  1  0.90292973  0.06480125  0.52069863  1
  F  F5  1  0.59707027  0.93519875  0.02069863  1
  F  F6  1  0.09707027  0.56480125  0.47930137  1
  F  F7  1  0.40292973  0.43519875  0.97930137  1
  F  F8  1  0.81948395  0.11417550  0.01870828  1
  F  F9  1  0.68051605  0.88582450  0.51870828  1
  F  F10  1  0.18051605  0.61417550  0.98129172  1
  F  F11  1  0.31948395  0.38582450  0.48129172  1
  F  F12  1  0.18051605  0.88582450  0.98129172  1
  F  F13  1  0.31948395  0.11417550  0.48129172  1
  F  F14  1  0.81948395  0.38582450  0.01870828  1
  F  F15  1  0.68051605  0.61417550  0.51870828  1
  F  F16  1  0.73485533  0.25000000  0.65764855  1
  F  F17  1  0.76514467  0.75000000  0.15764855  1
  F  F18  1  0.26514467  0.75000000  0.34235145  1
  F  F19  1  0.23485533  0.25000000  0.84235145  1
  F  F20  1  0.66293415  0.25000000  0.65079526  1
  F  F21  1  0.83706585  0.75000000  0.15079526  1
  F  F22  1  0.33706585  0.75000000  0.34920474  1
  F  F23  1  0.16293415  0.25000000  0.84920474  1
  Li  Li24  1  0.53647824  0.25000000  0.60926765  1
  Li  Li25  1  0.96352176  0.75000000  0.10926765  1
  Li  Li26  1  0.46352176  0.75000000  0.39073235  1
  Li  Li27  1  0.03647824  0.25000000  0.89073235  1
  Li  Li28  1  0.00000000  0.00000000  0.50000000  1
  Li  Li29  1  0.50000000  0.00000000  0.00000000  1
  Li  Li30  1  0.00000000  0.50000000  0.50000000  1
  Li  Li31  1  0.50000000  0.50000000  0.00000000  1
  Li  Li32  1  0.94199005  0.09613896  0.75785763  1
  Li  Li33  1  -0.44199005  -0.09613896  1.25785763  1
  Li  Li34  1  -0.94199005  0.59613896  -0.75785763  1
  Li  Li35  1  1.44199005  0.40386104  -0.25785763  1
  Li  Li36  1  -0.94199005  -0.09613896  -0.75785763  1
  Li  Li37  1  1.44199005  0.09613896  -0.25785763  1
  Li  Li38  1  0.94199005  0.40386104  0.75785763  1
  Li  Li39  1  -0.44199005  0.59613896  1.25785763  1
  Li  Li40  1  0.15487919  0.51708309  0.82714677  1
  Li  Li41  1  0.34512081  0.48291691  0.32714677  1
  Li  Li42  1  0.84512081  0.01708309  0.17285323  1
  Li  Li43  1  0.65487919  0.98291691  0.67285323  1
  Li  Li44  1  0.84512081  0.48291691  0.17285323  1
  Li  Li45  1  0.65487919  0.51708309  0.67285323  1
  Li  Li46  1  0.15487919  0.98291691  0.82714677  1
  Li  Li47  1  0.34512081  0.01708309  0.32714677  1
