# generated using pymatgen
data_LiF
_symmetry_space_group_name_H-M   'P 1'
_cell_length_a   5.28718001
_cell_length_b   5.28718001
_cell_length_c   31.43905962
_cell_angle_alpha   90.00000000
_cell_angle_beta   90.00000000
_cell_angle_gamma   120.00000000
_symmetry_Int_Tables_number   1
_chemical_formula_structural   LiF
_chemical_formula_sum   'Li30 F30'
_cell_volume   761.11165585
_cell_formula_units_Z   30
loop_
 _symmetry_equiv_pos_site_id
 _symmetry_equiv_pos_as_xyz
  1  'x, y, z'
loop_
 _atom_site_type_symbol
 _atom_site_label
 _atom_site_symmetry_multiplicity
 _atom_site_fract_x
 _atom_site_fract_y
 _atom_site_fract_z
 _atom_site_occupancy
  F  F0  1  0.11835031  0.88164969  0.50000000  1
  F  F1  1  0.11835031  0.23670061  0.50000000  1
  F  F2  1  0.76329939  0.88164969  0.50000000  1
  F  F3  1  0.70958269  0.82437208  0.52545690  1
  F  F4  1  0.17562792  0.88521061  0.52545690  1
  F  F5  1  0.11478939  0.29041731  0.52545690  1
  F  F6  1  0.17562792  0.29041731  0.47454310  1
  F  F7  1  0.11478939  0.82437208  0.47454310  1
  F  F8  1  0.70958269  0.88521061  0.47454310  1
  F  F9  1  0.95499523  0.86232478  0.20831995  1
  F  F10  1  0.13767522  0.09267045  0.20831995  1
  F  F11  1  0.90732955  0.04500477  0.20831995  1
  F  F12  1  0.13767522  0.04500477  0.79168005  1
  F  F13  1  0.90732955  0.86232478  0.79168005  1
  F  F14  1  0.95499523  0.09267045  0.79168005  1
  F  F15  1  0.58074753  0.82447664  0.91735618  1
  F  F16  1  0.17552336  0.75627089  0.91735618  1
  F  F17  1  0.24372911  0.41925247  0.91735618  1
  F  F18  1  0.17552336  0.41925247  0.08264382  1
  F  F19  1  0.24372911  0.82447664  0.08264382  1
  F  F20  1  0.58074753  0.75627089  0.08264382  1
  F  F21  1  0.26735942  0.73264058  0.50000000  1
  F  F22  1  0.26735942  0.53471884  0.50000000  1
  F  F23  1  0.46528116  0.73264058  0.50000000  1
  F  F24  1  0.29307920  0.38520401  0.95075339  1
  F  F25  1  0.61479599  0.90787519  0.95075339  1
  F  F26  1  0.09212481  0.70692080  0.95075339  1
  F  F27  1  0.61479599  0.70692080  0.04924661  1
  F  F28  1  0.09212481  0.38520401  0.04924661  1
  F  F29  1  0.29307920  0.90787519  0.04924661  1
  Li  Li30  1  0.00000000  0.00000000  0.50000000  1
  Li  Li31  1  0.22863321  0.01167795  0.29679142  1
  Li  Li32  1  -0.01167795  0.21695526  0.29679142  1
  Li  Li33  1  -0.21695526  -0.22863321  0.29679142  1
  Li  Li34  1  -0.01167795  -0.22863321  -0.29679142  1
  Li  Li35  1  -0.21695526  0.01167795  -0.29679142  1
  Li  Li36  1  0.22863321  0.21695526  -0.29679142  1
  Li  Li37  1  0.33333333  0.66666667  0.00000000  1
  Li  Li38  1  0.62789712  0.91329983  0.60937022  1
  Li  Li39  1  0.08670017  0.71459729  0.60937022  1
  Li  Li40  1  0.28540271  0.37210288  0.60937022  1
  Li  Li41  1  0.08670017  0.37210288  0.39062978  1
  Li  Li42  1  0.28540271  0.91329983  0.39062978  1
  Li  Li43  1  0.62789712  0.71459729  0.39062978  1
  Li  Li44  1  0.85744035  0.14255965  -0.00000000  1
  Li  Li45  1  0.85744035  0.71488071  0.00000000  1
  Li  Li46  1  0.28511929  0.14255965  0.00000000  1
  Li  Li47  1  0.78133190  0.71003159  0.85628309  1
  Li  Li48  1  0.28996841  0.07130031  0.85628309  1
  Li  Li49  1  0.92869969  0.21866810  0.85628309  1
  Li  Li50  1  0.28996841  0.21866810  0.14371691  1
  Li  Li51  1  0.92869969  0.71003159  0.14371691  1
  Li  Li52  1  0.78133190  0.07130031  0.14371691  1
  Li  Li53  1  0.00000000  0.00000000  0.00000000  1
  Li  Li54  1  0.48269266  0.51730734  0.00000000  1
  Li  Li55  1  0.48269266  0.96538533  0.00000000  1
  Li  Li56  1  0.03461467  0.51730734  0.00000000  1
  Li  Li57  1  0.15860842  0.84139158  0.00000000  1
  Li  Li58  1  0.15860842  0.31721685  0.00000000  1
  Li  Li59  1  0.68278315  0.84139158  0.00000000  1
