# generated using pymatgen
data_LiF
_symmetry_space_group_name_H-M   'P 1'
_cell_length_a   9.99026060
_cell_length_b   9.99026060
_cell_length_c   7.20596984
_cell_angle_alpha   90.00000000
_cell_angle_beta   90.00000000
_cell_angle_gamma   120.00000000
_symmetry_Int_Tables_number   1
_chemical_formula_structural   LiF
_chemical_formula_sum   'Li26 F26'
_cell_volume   622.84030090
_cell_formula_units_Z   26
loop_
 _symmetry_equiv_pos_site_id
 _symmetry_equiv_pos_as_xyz
  1  'x, y, z'
loop_
 _atom_site_type_symbol
 _atom_site_label
 _atom_site_symmetry_multiplicity
 _atom_site_fract_x
 _atom_site_fract_y
 _atom_site_fract_z
 _atom_site_occupancy
  F  F0  1  0.66666667  0.33333333  0.14256210  1
  F  F1  1  0.66666667  0.33333333  0.85743790  1
  F  F2  1  0.82450359  0.76852185  0.42588254  1
  F  F3  1  0.23147815  0.05598175  0.42588254  1
  F  F4  1  0.94401825  0.17549641  0.42588254  1
  F  F5  1  0.23147815  0.17549641  0.57411746  1
  F  F6  1  0.94401825  0.76852185  0.57411746  1
  F  F7  1  0.82450359  0.05598175  0.57411746  1
  F  F8  1  0.01282128  0.21151435  0.34112836  1
  F  F9  1  0.78848565  0.80130692  0.34112836  1
  F  F10  1  0.19869308  0.98717872  0.34112836  1
  F  F11  1  0.78848565  0.98717872  0.65887164  1
  F  F12  1  0.19869308  0.21151435  0.65887164  1
  F  F13  1  0.01282128  0.80130692  0.65887164  1
  F  F14  1  0.46038867  0.70130959  0.02856748  1
  F  F15  1  0.29869041  0.75907908  0.02856748  1
  F  F16  1  0.24092092  0.53961133  0.02856748  1
  F  F17  1  0.29869041  0.53961133  0.97143252  1
  F  F18  1  0.24092092  0.70130959  0.97143252  1
  F  F19  1  0.46038867  0.75907908  0.97143252  1
  F  F20  1  0.25880326  0.86929157  0.83907502  1
  F  F21  1  0.13070843  0.38951169  0.83907502  1
  F  F22  1  0.61048831  0.74119674  0.83907502  1
  F  F23  1  0.13070843  0.74119674  0.16092498  1
  F  F24  1  0.61048831  0.86929157  0.16092498  1
  F  F25  1  0.25880326  0.38951169  0.16092498  1
  Li  Li26  1  0.68672074  0.91344186  0.82031860  1
  Li  Li27  1  -0.91344186  -0.22672112  0.82031860  1
  Li  Li28  1  0.22672112  -0.68672074  0.82031860  1
  Li  Li29  1  -0.91344186  -0.68672074  -0.82031860  1
  Li  Li30  1  0.22672112  0.91344186  -0.82031860  1
  Li  Li31  1  0.68672074  -0.22672112  -0.82031860  1
  Li  Li32  1  0.66666667  0.33333333  0.00000000  1
  Li  Li33  1  0.06813270  0.88768959  0.40258149  1
  Li  Li34  1  0.11231041  0.18044311  0.40258149  1
  Li  Li35  1  0.81955689  0.93186730  0.40258149  1
  Li  Li36  1  0.11231041  0.93186730  0.59741851  1
  Li  Li37  1  0.81955689  0.88768959  0.59741851  1
  Li  Li38  1  0.06813270  0.18044311  0.59741851  1
  Li  Li39  1  0.66666667  0.33333333  0.71271137  1
  Li  Li40  1  0.66666667  0.33333333  0.28728863  1
  Li  Li41  1  0.51560949  0.91380874  0.35639913  1
  Li  Li42  1  0.08619126  0.60180075  0.35639913  1
  Li  Li43  1  0.39819925  0.48439051  0.35639913  1
  Li  Li44  1  0.08619126  0.48439051  0.64360087  1
  Li  Li45  1  0.39819925  0.91380874  0.64360087  1
  Li  Li46  1  0.51560949  0.60180075  0.64360087  1
  Li  Li47  1  0.33333333  0.66666667  0.00000000  1
  Li  Li48  1  0.17636765  0.82363235  -0.00000000  1
  Li  Li49  1  0.17636765  0.35273530  0.00000000  1
  Li  Li50  1  0.64726470  0.82363235  -0.00000000  1
  Li  Li51  1  0.66666667  0.33333333  0.50000000  1
