# generated using pymatgen
data_Li2Si4Te3F12
_symmetry_space_group_name_H-M   'P 1'
_cell_length_a   11.21911638
_cell_length_b   10.59521144
_cell_length_c   8.31482260
_cell_angle_alpha   90.00000000
_cell_angle_beta   90.00000000
_cell_angle_gamma   90.00000000
_symmetry_Int_Tables_number   1
_chemical_formula_structural   Li2Si4Te3F12
_chemical_formula_sum   'Li8 Si16 Te12 F48'
_cell_volume   988.37390142
_cell_formula_units_Z   4
loop_
 _symmetry_equiv_pos_site_id
 _symmetry_equiv_pos_as_xyz
  1  'x, y, z'
loop_
 _atom_site_type_symbol
 _atom_site_label
 _atom_site_symmetry_multiplicity
 _atom_site_fract_x
 _atom_site_fract_y
 _atom_site_fract_z
 _atom_site_occupancy
  F  F0  1  0.00000000  0.50000000  0.95149868  1
  F  F1  1  0.50000000  0.00000000  0.54850132  1
  F  F2  1  0.00000000  0.50000000  0.04850132  1
  F  F3  1  0.50000000  0.00000000  0.45149868  1
  F  F4  1  0.78377890  0.47928951  0.17246015  1
  F  F5  1  0.21622110  0.52071049  0.17246015  1
  F  F6  1  0.71622110  0.97928951  0.32753985  1
  F  F7  1  0.28377890  0.02071049  0.32753985  1
  F  F8  1  0.21622110  0.52071049  0.82753985  1
  F  F9  1  0.78377890  0.47928951  0.82753985  1
  F  F10  1  0.28377890  0.02071049  0.67246015  1
  F  F11  1  0.71622110  0.97928951  0.67246015  1
  F  F12  1  0.87680894  0.24309898  0.00000000  1
  F  F13  1  0.12319106  0.75690102  0.00000000  1
  F  F14  1  0.62319106  0.74309898  0.50000000  1
  F  F15  1  0.37680894  0.25690102  0.50000000  1
  F  F16  1  0.67344618  0.55201605  0.00000000  1
  F  F17  1  0.32655382  0.44798395  0.00000000  1
  F  F18  1  0.82655382  0.05201605  0.50000000  1
  F  F19  1  0.17344618  0.94798395  0.50000000  1
  F  F20  1  0.98843913  0.42635780  0.12325745  1
  F  F21  1  0.01156087  0.57364220  0.12325745  1
  F  F22  1  0.51156087  0.92635780  0.37674255  1
  F  F23  1  0.48843913  0.07364220  0.37674255  1
  F  F24  1  0.01156087  0.57364220  0.87674255  1
  F  F25  1  0.98843913  0.42635780  0.87674255  1
  F  F26  1  0.48843913  0.07364220  0.62325745  1
  F  F27  1  0.51156087  0.92635780  0.62325745  1
  F  F28  1  0.12131190  0.80575039  0.17168525  1
  F  F29  1  0.87868810  0.19424961  0.17168525  1
  F  F30  1  0.37868810  0.30575039  0.32831475  1
  F  F31  1  0.62131190  0.69424961  0.32831475  1
  F  F32  1  0.87868810  0.19424961  0.82831475  1
  F  F33  1  0.12131190  0.80575039  0.82831475  1
  F  F34  1  0.62131190  0.69424961  0.67168525  1
  F  F35  1  0.37868810  0.30575039  0.67168525  1
  F  F36  1  0.78756898  0.19433087  0.00000000  1
  F  F37  1  0.21243102  0.80566913  0.00000000  1
  F  F38  1  0.71243102  0.69433087  0.50000000  1
  F  F39  1  0.28756898  0.30566913  0.50000000  1
  F  F40  1  0.99198737  0.45500093  0.00000000  1
  F  F41  1  0.00801263  0.54499907  0.00000000  1
  F  F42  1  0.50801263  0.95500093  0.50000000  1
  F  F43  1  0.49198737  0.04499907  0.50000000  1
  F  F44  1  0.47606056  0.55763004  0.00000000  1
  F  F45  1  0.52393944  0.44236996  0.00000000  1
  F  F46  1  0.02393944  0.05763004  0.50000000  1
  F  F47  1  0.97606056  0.94236996  0.50000000  1
  Li  Li48  1  0.69167267  0.50019034  0.17001545  1
  Li  Li49  1  0.30832733  0.49980966  0.17001545  1
  Li  Li50  1  0.80832733  0.00019034  0.32998455  1
  Li  Li51  1  0.19167267  0.99980966  0.32998455  1
  Li  Li52  1  0.30832733  0.49980966  0.82998455  1
  Li  Li53  1  0.69167267  0.50019034  0.82998455  1
  Li  Li54  1  0.19167267  0.99980966  0.67001545  1
  Li  Li55  1  0.80832733  0.00019034  0.67001545  1
  Si  Si56  1  0.00000000  0.00000000  0.00000000  1
  Si  Si57  1  0.50000000  0.50000000  0.50000000  1
  Si  Si58  1  0.87640511  0.39735656  0.64828507  1
  Si  Si59  1  -0.87640511  -0.39735656  0.64828507  1
  Si  Si60  1  -0.37640511  0.89735656  -0.14828507  1
  Si  Si61  1  1.37640511  0.10264344  -0.14828507  1
  Si  Si62  1  -0.87640511  -0.39735656  -0.64828507  1
  Si  Si63  1  0.87640511  0.39735656  -0.64828507  1
  Si  Si64  1  1.37640511  0.10264344  1.14828507  1
  Si  Si65  1  -0.37640511  0.89735656  1.14828507  1
  Si  Si66  1  0.00000000  0.50000000  0.20724432  1
  Si  Si67  1  0.50000000  0.00000000  0.29275568  1
  Si  Si68  1  0.00000000  0.50000000  0.79275568  1
  Si  Si69  1  0.50000000  0.00000000  0.70724432  1
  Si  Si70  1  0.00000000  0.50000000  0.50000000  1
  Si  Si71  1  0.50000000  0.00000000  0.00000000  1
  Te  Te72  1  0.18908903  0.58543666  0.00000000  1
  Te  Te73  1  0.81091097  0.41456334  0.00000000  1
  Te  Te74  1  0.31091097  0.08543666  0.50000000  1
  Te  Te75  1  0.68908903  0.91456334  0.50000000  1
  Te  Te76  1  0.18718063  0.38565505  0.83206746  1
  Te  Te77  1  0.81281937  0.61434495  0.83206746  1
  Te  Te78  1  0.31281937  0.88565505  0.66793254  1
  Te  Te79  1  0.68718063  0.11434495  0.66793254  1
  Te  Te80  1  0.81281937  0.61434495  0.16793254  1
  Te  Te81  1  0.18718063  0.38565505  0.16793254  1
  Te  Te82  1  0.68718063  0.11434495  0.33206746  1
  Te  Te83  1  0.31281937  0.88565505  0.33206746  1
