# generated using pymatgen
data_Li4TeF2
_symmetry_space_group_name_H-M   'P 1'
_cell_length_a   14.63399191
_cell_length_b   14.63399191
_cell_length_c   14.63399191
_cell_angle_alpha   90.00000000
_cell_angle_beta   90.00000000
_cell_angle_gamma   90.00000000
_symmetry_Int_Tables_number   1
_chemical_formula_structural   Li4TeF2
_chemical_formula_sum   'Li96 Te24 F48'
_cell_volume   3133.92379148
_cell_formula_units_Z   24
loop_
 _symmetry_equiv_pos_site_id
 _symmetry_equiv_pos_as_xyz
  1  'x, y, z'
loop_
 _atom_site_type_symbol
 _atom_site_label
 _atom_site_symmetry_multiplicity
 _atom_site_fract_x
 _atom_site_fract_y
 _atom_site_fract_z
 _atom_site_occupancy
  F  F0  1  0.47068467  0.60802984  0.83504418  1
  F  F1  1  0.02931533  -0.60802984  1.33504418  1
  F  F2  1  -0.47068467  1.10802984  -0.33504418  1
  F  F3  1  0.97068467  -0.10802984  -0.83504418  1
  F  F4  1  0.83504418  0.47068467  0.60802984  1
  F  F5  1  1.33504418  0.02931533  -0.60802984  1
  F  F6  1  -0.33504418  -0.47068467  1.10802984  1
  F  F7  1  -0.83504418  0.97068467  -0.10802984  1
  F  F8  1  0.60802984  0.83504418  0.47068467  1
  F  F9  1  -0.60802984  1.33504418  0.02931533  1
  F  F10  1  1.10802984  -0.33504418  -0.47068467  1
  F  F11  1  -0.10802984  -0.83504418  0.97068467  1
  F  F12  1  1.35802984  0.72068467  -0.58504418  1
  F  F13  1  0.14197016  0.27931533  -0.08504418  1
  F  F14  1  0.85802984  -0.22068467  1.58504418  1
  F  F15  1  -0.35802984  1.22068467  1.08504418  1
  F  F16  1  1.22068467  1.08504418  -0.35802984  1
  F  F17  1  -0.22068467  1.58504418  0.85802984  1
  F  F18  1  0.27931533  -0.08504418  0.14197016  1
  F  F19  1  0.72068467  -0.58504418  1.35802984  1
  F  F20  1  1.58504418  0.85802984  -0.22068467  1
  F  F21  1  1.08504418  -0.35802984  1.22068467  1
  F  F22  1  -0.58504418  1.35802984  0.72068467  1
  F  F23  1  -0.08504418  0.14197016  0.27931533  1
  F  F24  1  0.97068467  1.10802984  1.33504418  1
  F  F25  1  0.52931533  -0.10802984  1.83504418  1
  F  F26  1  0.02931533  1.60802984  0.16495582  1
  F  F27  1  1.47068467  0.39197016  -0.33504418  1
  F  F28  1  1.33504418  0.97068467  1.10802984  1
  F  F29  1  1.83504418  0.52931533  -0.10802984  1
  F  F30  1  0.16495582  0.02931533  1.60802984  1
  F  F31  1  -0.33504418  1.47068467  0.39197016  1
  F  F32  1  1.10802984  1.33504418  0.97068467  1
  F  F33  1  -0.10802984  1.83504418  0.52931533  1
  F  F34  1  1.60802984  0.16495582  0.02931533  1
  F  F35  1  0.39197016  -0.33504418  1.47068467  1
  F  F36  1  1.85802984  1.22068467  -0.08504418  1
  F  F37  1  0.64197016  0.77931533  0.41495582  1
  F  F38  1  1.35802984  0.27931533  2.08504418  1
  F  F39  1  0.14197016  1.72068467  1.58504418  1
  F  F40  1  1.72068467  1.58504418  0.14197016  1
  F  F41  1  0.27931533  2.08504418  1.35802984  1
  F  F42  1  0.77931533  0.41495582  0.64197016  1
  F  F43  1  1.22068467  -0.08504418  1.85802984  1
  F  F44  1  2.08504418  1.35802984  0.27931533  1
  F  F45  1  1.58504418  0.14197016  1.72068467  1
  F  F46  1  -0.08504418  1.85802984  1.22068467  1
  F  F47  1  0.41495582  0.64197016  0.77931533  1
  Li  Li48  1  0.86994471  0.39374364  0.24944874  1
  Li  Li49  1  0.63005529  0.60625636  0.74944874  1
  Li  Li50  1  0.13005529  0.89374364  0.25055126  1
  Li  Li51  1  0.36994471  0.10625636  0.75055126  1
  Li  Li52  1  0.24944874  0.86994471  0.39374364  1
  Li  Li53  1  0.74944874  0.63005529  0.60625636  1
  Li  Li54  1  0.25055126  0.13005529  0.89374364  1
  Li  Li55  1  0.75055126  0.36994471  0.10625636  1
  Li  Li56  1  0.39374364  0.24944874  0.86994471  1
  Li  Li57  1  0.60625636  0.74944874  0.63005529  1
  Li  Li58  1  0.89374364  0.25055126  0.13005529  1
  Li  Li59  1  0.10625636  0.75055126  0.36994471  1
  Li  Li60  1  0.14374364  0.11994471  0.00055126  1
  Li  Li61  1  0.35625636  0.88005529  0.50055126  1
  Li  Li62  1  0.64374364  0.38005529  0.99944874  1
  Li  Li63  1  0.85625636  0.61994471  0.49944874  1
  Li  Li64  1  0.61994471  0.49944874  0.85625636  1
  Li  Li65  1  0.38005529  0.99944874  0.64374364  1
  Li  Li66  1  0.88005529  0.50055126  0.35625636  1
  Li  Li67  1  0.11994471  0.00055126  0.14374364  1
  Li  Li68  1  0.99944874  0.64374364  0.38005529  1
  Li  Li69  1  0.49944874  0.85625636  0.61994471  1
  Li  Li70  1  0.00055126  0.14374364  0.11994471  1
  Li  Li71  1  0.50055126  0.35625636  0.88005529  1
  Li  Li72  1  0.36994471  0.89374364  0.74944874  1
  Li  Li73  1  0.13005529  0.10625636  0.24944874  1
  Li  Li74  1  0.63005529  0.39374364  0.75055126  1
  Li  Li75  1  0.86994471  0.60625636  0.25055126  1
  Li  Li76  1  0.74944874  0.36994471  0.89374364  1
  Li  Li77  1  0.24944874  0.13005529  0.10625636  1
  Li  Li78  1  0.75055126  0.63005529  0.39374364  1
  Li  Li79  1  0.25055126  0.86994471  0.60625636  1
  Li  Li80  1  0.89374364  0.74944874  0.36994471  1
  Li  Li81  1  0.10625636  0.24944874  0.13005529  1
  Li  Li82  1  0.39374364  0.75055126  0.63005529  1
  Li  Li83  1  0.60625636  0.25055126  0.86994471  1
  Li  Li84  1  0.64374364  0.61994471  0.50055126  1
  Li  Li85  1  0.85625636  0.38005529  0.00055126  1
  Li  Li86  1  0.14374364  0.88005529  0.49944874  1
  Li  Li87  1  0.35625636  0.11994471  0.99944874  1
  Li  Li88  1  0.11994471  0.99944874  0.35625636  1
  Li  Li89  1  0.88005529  0.49944874  0.14374364  1
  Li  Li90  1  0.38005529  0.00055126  0.85625636  1
  Li  Li91  1  0.61994471  0.50055126  0.64374364  1
  Li  Li92  1  0.49944874  0.14374364  0.88005529  1
  Li  Li93  1  0.99944874  0.35625636  0.11994471  1
  Li  Li94  1  0.50055126  0.64374364  0.61994471  1
  Li  Li95  1  0.00055126  0.85625636  0.38005529  1
  Li  Li96  1  0.24808858  0.24808858  0.24808858  1
  Li  Li97  1  0.25191142  0.75191142  0.74808858  1
  Li  Li98  1  0.75191142  0.74808858  0.25191142  1
  Li  Li99  1  0.74808858  0.25191142  0.75191142  1
  Li  Li100  1  0.99808858  0.49808858  0.00191142  1
  Li  Li101  1  0.50191142  0.50191142  0.50191142  1
  Li  Li102  1  0.49808858  0.00191142  0.99808858  1
  Li  Li103  1  0.00191142  0.99808858  0.49808858  1
  Li  Li104  1  0.74808858  0.74808858  0.74808858  1
  Li  Li105  1  0.75191142  0.25191142  0.24808858  1
  Li  Li106  1  0.25191142  0.24808858  0.75191142  1
  Li  Li107  1  0.24808858  0.75191142  0.25191142  1
  Li  Li108  1  0.49808858  0.99808858  0.50191142  1
  Li  Li109  1  0.00191142  0.00191142  0.00191142  1
  Li  Li110  1  0.99808858  0.50191142  0.49808858  1
  Li  Li111  1  0.50191142  0.49808858  0.99808858  1
  Li  Li112  1  0.12500000  0.18015974  0.43015974  1
  Li  Li113  1  0.37500000  0.81984026  0.93015974  1
  Li  Li114  1  0.87500000  0.68015974  0.06984026  1
  Li  Li115  1  0.62500000  0.31984026  0.56984026  1
  Li  Li116  1  0.43015974  0.12500000  0.18015974  1
  Li  Li117  1  0.93015974  0.37500000  0.81984026  1
  Li  Li118  1  0.06984026  0.87500000  0.68015974  1
  Li  Li119  1  0.56984026  0.62500000  0.31984026  1
  Li  Li120  1  0.18015974  0.43015974  0.12500000  1
  Li  Li121  1  0.81984026  0.93015974  0.37500000  1
  Li  Li122  1  0.68015974  0.06984026  0.87500000  1
  Li  Li123  1  0.31984026  0.56984026  0.62500000  1
  Li  Li124  1  0.62500000  0.68015974  0.93015974  1
  Li  Li125  1  0.87500000  0.31984026  0.43015974  1
  Li  Li126  1  0.37500000  0.18015974  0.56984026  1
  Li  Li127  1  0.12500000  0.81984026  0.06984026  1
  Li  Li128  1  0.93015974  0.62500000  0.68015974  1
  Li  Li129  1  0.43015974  0.87500000  0.31984026  1
  Li  Li130  1  0.56984026  0.37500000  0.18015974  1
  Li  Li131  1  0.06984026  0.12500000  0.81984026  1
  Li  Li132  1  0.68015974  0.93015974  0.62500000  1
  Li  Li133  1  0.31984026  0.43015974  0.87500000  1
  Li  Li134  1  0.18015974  0.56984026  0.37500000  1
  Li  Li135  1  0.81984026  0.06984026  0.12500000  1
  Li  Li136  1  0.87500000  0.87500000  0.87500000  1
  Li  Li137  1  0.62500000  0.12500000  0.37500000  1
  Li  Li138  1  0.12500000  0.37500000  0.62500000  1
  Li  Li139  1  0.37500000  0.62500000  0.12500000  1
  Li  Li140  1  0.37500000  0.37500000  0.37500000  1
  Li  Li141  1  0.12500000  0.62500000  0.87500000  1
  Li  Li142  1  0.62500000  0.87500000  0.12500000  1
  Li  Li143  1  0.87500000  0.12500000  0.62500000  1
  Te  Te144  1  0.62500000  -0.00000000  0.25000000  1
  Te  Te145  1  0.87500000  0.00000000  0.75000000  1
  Te  Te146  1  0.25000000  0.62500000  -0.00000000  1
  Te  Te147  1  0.75000000  0.87500000  0.00000000  1
  Te  Te148  1  0.00000000  0.25000000  0.62500000  1
  Te  Te149  1  0.00000000  0.75000000  0.87500000  1
  Te  Te150  1  0.12500000  0.50000000  0.75000000  1
  Te  Te151  1  0.37500000  0.50000000  0.25000000  1
  Te  Te152  1  0.75000000  0.12500000  0.50000000  1
  Te  Te153  1  0.25000000  0.37500000  0.50000000  1
  Te  Te154  1  0.50000000  0.75000000  0.12500000  1
  Te  Te155  1  0.50000000  0.25000000  0.37500000  1
  Te  Te156  1  0.12500000  0.00000000  0.25000000  1
  Te  Te157  1  0.37500000  -0.00000000  0.75000000  1
  Te  Te158  1  0.25000000  0.12500000  0.00000000  1
  Te  Te159  1  0.75000000  0.37500000  -0.00000000  1
  Te  Te160  1  0.00000000  0.25000000  0.12500000  1
  Te  Te161  1  0.00000000  0.75000000  0.37500000  1
  Te  Te162  1  0.62500000  0.50000000  0.75000000  1
  Te  Te163  1  0.87500000  0.50000000  0.25000000  1
  Te  Te164  1  0.75000000  0.62500000  0.50000000  1
  Te  Te165  1  0.25000000  0.87500000  0.50000000  1
  Te  Te166  1  0.50000000  0.75000000  0.62500000  1
  Te  Te167  1  0.50000000  0.25000000  0.87500000  1
