# generated using pymatgen
data_LiF
_symmetry_space_group_name_H-M   'P 1'
_cell_length_a   8.72617842
_cell_length_b   6.31073567
_cell_length_c   12.60852808
_cell_angle_alpha   90.00000000
_cell_angle_beta   90.00000000
_cell_angle_gamma   90.00000000
_symmetry_Int_Tables_number   1
_chemical_formula_structural   LiF
_chemical_formula_sum   'Li24 F24'
_cell_volume   694.33405703
_cell_formula_units_Z   24
loop_
 _symmetry_equiv_pos_site_id
 _symmetry_equiv_pos_as_xyz
  1  'x, y, z'
loop_
 _atom_site_type_symbol
 _atom_site_label
 _atom_site_symmetry_multiplicity
 _atom_site_fract_x
 _atom_site_fract_y
 _atom_site_fract_z
 _atom_site_occupancy
  F  F0  1  0.39507970  0.85036615  0.91470914  1
  F  F1  1  0.10492030  0.14963385  0.41470914  1
  F  F2  1  0.60492030  0.35036615  0.08529086  1
  F  F3  1  0.89507970  0.64963385  0.58529086  1
  F  F4  1  0.60492030  0.14963385  0.08529086  1
  F  F5  1  0.89507970  0.85036615  0.58529086  1
  F  F6  1  0.39507970  0.64963385  0.91470914  1
  F  F7  1  0.10492030  0.35036615  0.41470914  1
  F  F8  1  0.03116526  0.92280026  0.58369662  1
  F  F9  1  0.46883474  0.07719974  0.08369662  1
  F  F10  1  0.96883474  0.42280026  0.41630338  1
  F  F11  1  0.53116526  0.57719974  0.91630338  1
  F  F12  1  0.96883474  0.07719974  0.41630338  1
  F  F13  1  0.53116526  0.92280026  0.91630338  1
  F  F14  1  0.03116526  0.57719974  0.58369662  1
  F  F15  1  0.46883474  0.42280026  0.08369662  1
  F  F16  1  0.90024985  0.66050298  0.98077291  1
  F  F17  1  0.59975015  0.33949702  0.48077291  1
  F  F18  1  0.09975015  0.16050298  0.01922709  1
  F  F19  1  0.40024985  0.83949702  0.51922709  1
  F  F20  1  0.09975015  0.33949702  0.01922709  1
  F  F21  1  0.40024985  0.66050298  0.51922709  1
  F  F22  1  0.90024985  0.83949702  0.98077291  1
  F  F23  1  0.59975015  0.16050298  0.48077291  1
  Li  Li24  1  0.00000000  0.00000000  0.50000000  1
  Li  Li25  1  0.50000000  0.00000000  0.00000000  1
  Li  Li26  1  0.00000000  0.50000000  0.50000000  1
  Li  Li27  1  0.50000000  0.50000000  -0.00000000  1
  Li  Li28  1  0.36889863  0.46305947  0.59318681  1
  Li  Li29  1  0.13110137  -0.46305947  1.09318681  1
  Li  Li30  1  -0.36889863  0.96305947  -0.59318681  1
  Li  Li31  1  0.86889863  0.03694053  -0.09318681  1
  Li  Li32  1  -0.36889863  -0.46305947  -0.59318681  1
  Li  Li33  1  0.86889863  0.46305947  -0.09318681  1
  Li  Li34  1  0.36889863  0.03694053  0.59318681  1
  Li  Li35  1  0.13110137  0.96305947  1.09318681  1
  Li  Li36  1  0.00000000  0.00000000  0.00000000  1
  Li  Li37  1  0.50000000  0.00000000  0.50000000  1
  Li  Li38  1  0.00000000  0.50000000  0.00000000  1
  Li  Li39  1  0.50000000  0.50000000  0.50000000  1
  Li  Li40  1  0.32273875  0.13398249  0.37756456  1
  Li  Li41  1  0.17726125  0.86601751  0.87756456  1
  Li  Li42  1  0.67726125  0.63398249  0.62243544  1
  Li  Li43  1  0.82273875  0.36601751  0.12243544  1
  Li  Li44  1  0.67726125  0.86601751  0.62243544  1
  Li  Li45  1  0.82273875  0.13398249  0.12243544  1
  Li  Li46  1  0.32273875  0.36601751  0.37756456  1
  Li  Li47  1  0.17726125  0.63398249  0.87756456  1
