# generated using pymatgen
data_LiF
_symmetry_space_group_name_H-M   'P 1'
_cell_length_a   5.81741356
_cell_length_b   9.35577936
_cell_length_c   5.98519928
_cell_angle_alpha   90.00000000
_cell_angle_beta   90.00000000
_cell_angle_gamma   90.00000000
_symmetry_Int_Tables_number   1
_chemical_formula_structural   LiF
_chemical_formula_sum   'Li16 F16'
_cell_volume   325.75307570
_cell_formula_units_Z   16
loop_
 _symmetry_equiv_pos_site_id
 _symmetry_equiv_pos_as_xyz
  1  'x, y, z'
loop_
 _atom_site_type_symbol
 _atom_site_label
 _atom_site_symmetry_multiplicity
 _atom_site_fract_x
 _atom_site_fract_y
 _atom_site_fract_z
 _atom_site_occupancy
  F  F0  1  0.02535868  0.34031704  0.86512861  1
  F  F1  1  -0.02535868  -0.34031704  0.86512861  1
  F  F2  1  0.47464132  0.84031704  -0.36512861  1
  F  F3  1  0.52535868  0.15968296  -0.36512861  1
  F  F4  1  -0.02535868  -0.34031704  -0.86512861  1
  F  F5  1  0.02535868  0.34031704  -0.86512861  1
  F  F6  1  0.52535868  0.15968296  1.36512861  1
  F  F7  1  0.47464132  0.84031704  1.36512861  1
  F  F8  1  0.24870320  0.97363819  0.24014417  1
  F  F9  1  0.75129680  0.02636181  0.24014417  1
  F  F10  1  0.25129680  0.47363819  0.25985583  1
  F  F11  1  0.74870320  0.52636181  0.25985583  1
  F  F12  1  0.75129680  0.02636181  0.75985583  1
  F  F13  1  0.24870320  0.97363819  0.75985583  1
  F  F14  1  0.74870320  0.52636181  0.74014417  1
  F  F15  1  0.25129680  0.47363819  0.74014417  1
  Li  Li16  1  0.00000000  0.50000000  0.50000000  1
  Li  Li17  1  0.50000000  0.00000000  0.00000000  1
  Li  Li18  1  0.23264307  0.13050324  0.00000000  1
  Li  Li19  1  0.76735693  0.86949676  0.00000000  1
  Li  Li20  1  0.26735693  0.63050324  0.50000000  1
  Li  Li21  1  0.73264307  0.36949676  0.50000000  1
  Li  Li22  1  0.97451811  0.81009541  0.75394346  1
  Li  Li23  1  0.02548189  0.18990459  0.75394346  1
  Li  Li24  1  0.52548189  0.31009541  0.74605654  1
  Li  Li25  1  0.47451811  0.68990459  0.74605654  1
  Li  Li26  1  0.02548189  0.18990459  0.24605654  1
  Li  Li27  1  0.97451811  0.81009541  0.24605654  1
  Li  Li28  1  0.47451811  0.68990459  0.25394346  1
  Li  Li29  1  0.52548189  0.31009541  0.25394346  1
  Li  Li30  1  0.00000000  0.00000000  0.50000000  1
  Li  Li31  1  0.50000000  0.50000000  0.00000000  1
