# generated using pymatgen
data_LiF
_symmetry_space_group_name_H-M   'P 1'
_cell_length_a   18.42849264
_cell_length_b   18.42849264
_cell_length_c   5.57259661
_cell_angle_alpha   90.00000000
_cell_angle_beta   90.00000000
_cell_angle_gamma   90.00000000
_symmetry_Int_Tables_number   1
_chemical_formula_structural   LiF
_chemical_formula_sum   'Li64 F64'
_cell_volume   1892.50586228
_cell_formula_units_Z   64
loop_
 _symmetry_equiv_pos_site_id
 _symmetry_equiv_pos_as_xyz
  1  'x, y, z'
loop_
 _atom_site_type_symbol
 _atom_site_label
 _atom_site_symmetry_multiplicity
 _atom_site_fract_x
 _atom_site_fract_y
 _atom_site_fract_z
 _atom_site_occupancy
  F  F0  1  0.88384604  0.37318482  0.34680591  1
  F  F1  1  0.61615396  0.62681518  0.84680591  1
  F  F2  1  0.87681518  0.63384604  0.59680591  1
  F  F3  1  0.62318482  0.36615396  0.09680591  1
  F  F4  1  0.61615396  0.37318482  0.65319409  1
  F  F5  1  0.88384604  0.62681518  0.15319409  1
  F  F6  1  0.62318482  0.63384604  0.40319409  1
  F  F7  1  0.87681518  0.36615396  0.90319409  1
  F  F8  1  0.11615396  0.62681518  0.65319409  1
  F  F9  1  0.38384604  0.37318482  0.15319409  1
  F  F10  1  0.12318482  0.36615396  0.40319409  1
  F  F11  1  0.37681518  0.63384604  0.90319409  1
  F  F12  1  0.38384604  0.62681518  0.34680591  1
  F  F13  1  0.11615396  0.37318482  0.84680591  1
  F  F14  1  0.37681518  0.36615396  0.59680591  1
  F  F15  1  0.12318482  0.63384604  0.09680591  1
  F  F16  1  0.38384604  0.87318482  0.84680591  1
  F  F17  1  0.11615396  0.12681518  0.34680591  1
  F  F18  1  0.37681518  0.13384604  0.09680591  1
  F  F19  1  0.12318482  0.86615396  0.59680591  1
  F  F20  1  0.11615396  0.87318482  0.15319409  1
  F  F21  1  0.38384604  0.12681518  0.65319409  1
  F  F22  1  0.12318482  0.13384604  0.90319409  1
  F  F23  1  0.37681518  0.86615396  0.40319409  1
  F  F24  1  0.61615396  0.12681518  0.15319409  1
  F  F25  1  0.88384604  0.87318482  0.65319409  1
  F  F26  1  0.62318482  0.86615396  0.90319409  1
  F  F27  1  0.87681518  0.13384604  0.40319409  1
  F  F28  1  0.88384604  0.12681518  0.84680591  1
  F  F29  1  0.61615396  0.87318482  0.34680591  1
  F  F30  1  0.87681518  0.86615396  0.09680591  1
  F  F31  1  0.62318482  0.13384604  0.59680591  1
  F  F32  1  0.46313765  0.66194168  0.97860441  1
  F  F33  1  0.03686235  0.33805832  0.47860441  1
  F  F34  1  0.58805832  0.21313765  0.22860441  1
  F  F35  1  0.91194168  0.78686235  0.72860441  1
  F  F36  1  0.03686235  0.66194168  0.02139559  1
  F  F37  1  0.46313765  0.33805832  0.52139559  1
  F  F38  1  0.91194168  0.21313765  0.77139559  1
  F  F39  1  0.58805832  0.78686235  0.27139559  1
  F  F40  1  0.53686235  0.33805832  0.02139559  1
  F  F41  1  0.96313765  0.66194168  0.52139559  1
  F  F42  1  0.41194168  0.78686235  0.77139559  1
  F  F43  1  0.08805832  0.21313765  0.27139559  1
  F  F44  1  0.96313765  0.33805832  0.97860441  1
  F  F45  1  0.53686235  0.66194168  0.47860441  1
  F  F46  1  0.08805832  0.78686235  0.22860441  1
  F  F47  1  0.41194168  0.21313765  0.72860441  1
  F  F48  1  0.96313765  0.16194168  0.47860441  1
  F  F49  1  0.53686235  0.83805832  0.97860441  1
  F  F50  1  0.08805832  0.71313765  0.72860441  1
  F  F51  1  0.41194168  0.28686235  0.22860441  1
  F  F52  1  0.53686235  0.16194168  0.52139559  1
  F  F53  1  0.96313765  0.83805832  0.02139559  1
  F  F54  1  0.41194168  0.71313765  0.27139559  1
  F  F55  1  0.08805832  0.28686235  0.77139559  1
  F  F56  1  0.03686235  0.83805832  0.52139559  1
  F  F57  1  0.46313765  0.16194168  0.02139559  1
  F  F58  1  0.91194168  0.28686235  0.27139559  1
  F  F59  1  0.58805832  0.71313765  0.77139559  1
  F  F60  1  0.46313765  0.83805832  0.47860441  1
  F  F61  1  0.03686235  0.16194168  0.97860441  1
  F  F62  1  0.58805832  0.28686235  0.72860441  1
  F  F63  1  0.91194168  0.71313765  0.22860441  1
  Li  Li64  1  0.91354305  0.68345297  0.51309518  1
  Li  Li65  1  -0.41354305  -0.68345297  1.01309518  1
  Li  Li66  1  -0.43345297  1.66354305  0.76309518  1
  Li  Li67  1  0.93345297  -0.66354305  1.26309518  1
  Li  Li68  1  -0.41354305  0.68345297  -0.51309518  1
  Li  Li69  1  0.91354305  -0.68345297  -0.01309518  1
  Li  Li70  1  0.93345297  1.66354305  0.23690482  1
  Li  Li71  1  -0.43345297  -0.66354305  -0.26309518  1
  Li  Li72  1  -0.91354305  -0.68345297  -0.51309518  1
  Li  Li73  1  1.41354305  0.68345297  -0.01309518  1
  Li  Li74  1  1.43345297  -0.66354305  0.23690482  1
  Li  Li75  1  0.06654703  1.66354305  -0.26309518  1
  Li  Li76  1  1.41354305  -0.68345297  0.51309518  1
  Li  Li77  1  -0.91354305  0.68345297  1.01309518  1
  Li  Li78  1  0.06654703  -0.66354305  0.76309518  1
  Li  Li79  1  1.43345297  1.66354305  1.26309518  1
  Li  Li80  1  1.41354305  1.18345297  1.01309518  1
  Li  Li81  1  0.08645695  -0.18345297  1.51309518  1
  Li  Li82  1  0.06654703  2.16354305  1.26309518  1
  Li  Li83  1  1.43345297  -0.16354305  1.76309518  1
  Li  Li84  1  0.08645695  1.18345297  -0.01309518  1
  Li  Li85  1  1.41354305  -0.18345297  0.48690482  1
  Li  Li86  1  1.43345297  2.16354305  0.73690482  1
  Li  Li87  1  0.06654703  -0.16354305  0.23690482  1
  Li  Li88  1  -0.41354305  -0.18345297  -0.01309518  1
  Li  Li89  1  1.91354305  1.18345297  0.48690482  1
  Li  Li90  1  1.93345297  -0.16354305  0.73690482  1
  Li  Li91  1  0.56654703  2.16354305  0.23690482  1
  Li  Li92  1  1.91354305  -0.18345297  1.01309518  1
  Li  Li93  1  -0.41354305  1.18345297  1.51309518  1
  Li  Li94  1  0.56654703  -0.16354305  1.26309518  1
  Li  Li95  1  1.93345297  2.16354305  1.76309518  1
  Li  Li96  1  0.11763702  0.49683377  0.53046442  1
  Li  Li97  1  0.38236298  0.50316623  0.03046442  1
  Li  Li98  1  0.75316623  0.86763702  0.78046442  1
  Li  Li99  1  0.74683377  0.13236298  0.28046442  1
  Li  Li100  1  0.38236298  0.49683377  0.46953558  1
  Li  Li101  1  0.11763702  0.50316623  0.96953558  1
  Li  Li102  1  0.74683377  0.86763702  0.21953558  1
  Li  Li103  1  0.75316623  0.13236298  0.71953558  1
  Li  Li104  1  0.88236298  0.50316623  0.46953558  1
  Li  Li105  1  0.61763702  0.49683377  0.96953558  1
  Li  Li106  1  0.24683377  0.13236298  0.21953558  1
  Li  Li107  1  0.25316623  0.86763702  0.71953558  1
  Li  Li108  1  0.61763702  0.50316623  0.53046442  1
  Li  Li109  1  0.88236298  0.49683377  0.03046442  1
  Li  Li110  1  0.25316623  0.13236298  0.78046442  1
  Li  Li111  1  0.24683377  0.86763702  0.28046442  1
  Li  Li112  1  0.61763702  0.99683377  0.03046442  1
  Li  Li113  1  0.88236298  0.00316623  0.53046442  1
  Li  Li114  1  0.25316623  0.36763702  0.28046442  1
  Li  Li115  1  0.24683377  0.63236298  0.78046442  1
  Li  Li116  1  0.88236298  0.99683377  0.96953558  1
  Li  Li117  1  0.61763702  0.00316623  0.46953558  1
  Li  Li118  1  0.24683377  0.36763702  0.71953558  1
  Li  Li119  1  0.25316623  0.63236298  0.21953558  1
  Li  Li120  1  0.38236298  0.00316623  0.96953558  1
  Li  Li121  1  0.11763702  0.99683377  0.46953558  1
  Li  Li122  1  0.74683377  0.63236298  0.71953558  1
  Li  Li123  1  0.75316623  0.36763702  0.21953558  1
  Li  Li124  1  0.11763702  0.00316623  0.03046442  1
  Li  Li125  1  0.38236298  0.99683377  0.53046442  1
  Li  Li126  1  0.75316623  0.63236298  0.28046442  1
  Li  Li127  1  0.74683377  0.36763702  0.78046442  1
