# generated using pymatgen
data_LiCaF3
_symmetry_space_group_name_H-M   'P 1'
_cell_length_a   17.02849601
_cell_length_b   17.02849601
_cell_length_c   7.37957453
_cell_angle_alpha   90.00000000
_cell_angle_beta   90.00000000
_cell_angle_gamma   120.00000000
_symmetry_Int_Tables_number   1
_chemical_formula_structural   LiCaF3
_chemical_formula_sum   'Li18 Ca18 F54'
_cell_volume   1853.16691805
_cell_formula_units_Z   18
loop_
 _symmetry_equiv_pos_site_id
 _symmetry_equiv_pos_as_xyz
  1  'x, y, z'
loop_
 _atom_site_type_symbol
 _atom_site_label
 _atom_site_symmetry_multiplicity
 _atom_site_fract_x
 _atom_site_fract_y
 _atom_site_fract_z
 _atom_site_occupancy
  Ca  Ca0  1  0.31886544  0.76100322  0.77761690  1
  Ca  Ca1  1  -0.76100322  -0.44213778  0.77761690  1
  Ca  Ca2  1  0.44213778  -0.31886544  0.77761690  1
  Ca  Ca3  1  0.31886544  0.76100322  -0.77761690  1
  Ca  Ca4  1  -0.76100322  -0.44213778  -0.77761690  1
  Ca  Ca5  1  0.44213778  -0.31886544  -0.77761690  1
  Ca  Ca6  1  0.76100322  0.31886544  -0.77761690  1
  Ca  Ca7  1  -0.44213778  -0.76100322  -0.77761690  1
  Ca  Ca8  1  -0.31886544  0.44213778  -0.77761690  1
  Ca  Ca9  1  0.76100322  0.31886544  0.77761690  1
  Ca  Ca10  1  -0.44213778  -0.76100322  0.77761690  1
  Ca  Ca11  1  -0.31886544  0.44213778  0.77761690  1
  Ca  Ca12  1  0.89827588  0.23347823  0.50000000  1
  Ca  Ca13  1  0.76652177  0.66479764  0.50000000  1
  Ca  Ca14  1  0.33520236  0.10172412  0.50000000  1
  Ca  Ca15  1  0.23347823  0.89827588  0.50000000  1
  Ca  Ca16  1  0.66479764  0.76652177  0.50000000  1
  Ca  Ca17  1  0.10172412  0.33520236  0.50000000  1
  F  F18  1  0.57258960  0.73270950  -0.00000000  1
  F  F19  1  0.26729050  0.83988010  -0.00000000  1
  F  F20  1  0.16011990  0.42741040  -0.00000000  1
  F  F21  1  0.73270950  0.57258960  -0.00000000  1
  F  F22  1  0.83988010  0.26729050  -0.00000000  1
  F  F23  1  0.42741040  0.16011990  -0.00000000  1
  F  F24  1  0.93714594  0.05139731  0.43726800  1
  F  F25  1  0.94860269  0.88574863  0.43726800  1
  F  F26  1  0.11425137  0.06285406  0.43726800  1
  F  F27  1  0.93714594  0.05139731  0.56273200  1
  F  F28  1  0.94860269  0.88574863  0.56273200  1
  F  F29  1  0.11425137  0.06285406  0.56273200  1
  F  F30  1  0.05139731  0.93714594  0.56273200  1
  F  F31  1  0.88574863  0.94860269  0.56273200  1
  F  F32  1  0.06285406  0.11425137  0.56273200  1
  F  F33  1  0.05139731  0.93714594  0.43726800  1
  F  F34  1  0.88574863  0.94860269  0.43726800  1
  F  F35  1  0.06285406  0.11425137  0.43726800  1
  F  F36  1  0.51524928  0.02888677  0.94397215  1
  F  F37  1  0.97111323  0.48636251  0.94397215  1
  F  F38  1  0.51363749  0.48475072  0.94397215  1
  F  F39  1  0.51524928  0.02888677  0.05602785  1
  F  F40  1  0.97111323  0.48636251  0.05602785  1
  F  F41  1  0.51363749  0.48475072  0.05602785  1
  F  F42  1  0.02888677  0.51524928  0.05602785  1
  F  F43  1  0.48636251  0.97111323  0.05602785  1
  F  F44  1  0.48475072  0.51363749  0.05602785  1
  F  F45  1  0.02888677  0.51524928  0.94397215  1
  F  F46  1  0.48636251  0.97111323  0.94397215  1
  F  F47  1  0.48475072  0.51363749  0.94397215  1
  F  F48  1  0.91766681  0.62316559  0.20241167  1
  F  F49  1  0.37683441  0.29450122  0.20241167  1
  F  F50  1  0.70549878  0.08233319  0.20241167  1
  F  F51  1  0.91766681  0.62316559  0.79758833  1
  F  F52  1  0.37683441  0.29450122  0.79758833  1
  F  F53  1  0.70549878  0.08233319  0.79758833  1
  F  F54  1  0.62316559  0.91766681  0.79758833  1
  F  F55  1  0.29450122  0.37683441  0.79758833  1
  F  F56  1  0.08233319  0.70549878  0.79758833  1
  F  F57  1  0.62316559  0.91766681  0.20241167  1
  F  F58  1  0.29450122  0.37683441  0.20241167  1
  F  F59  1  0.08233319  0.70549878  0.20241167  1
  F  F60  1  0.02446819  0.00000000  0.39944142  1
  F  F61  1  0.00000000  0.02446819  0.39944142  1
  F  F62  1  0.97553181  0.97553181  0.39944142  1
  F  F63  1  0.02446819  0.00000000  0.60055858  1
  F  F64  1  0.00000000  0.02446819  0.60055858  1
  F  F65  1  0.97553181  0.97553181  0.60055858  1
  F  F66  1  0.81414913  0.00000000  0.50000000  1
  F  F67  1  0.00000000  0.81414913  0.50000000  1
  F  F68  1  0.18585087  0.18585087  0.50000000  1
  F  F69  1  0.16477602  0.00000000  0.50000000  1
  F  F70  1  0.00000000  0.16477602  0.50000000  1
  F  F71  1  0.83522398  0.83522398  0.50000000  1
  Li  Li72  1  0.66816303  0.19176813  0.24345501  1
  Li  Li73  1  0.80823187  0.47639490  0.24345501  1
  Li  Li74  1  0.52360510  0.33183697  0.24345501  1
  Li  Li75  1  0.66816303  0.19176813  0.75654499  1
  Li  Li76  1  0.80823187  0.47639490  0.75654499  1
  Li  Li77  1  0.52360510  0.33183697  0.75654499  1
  Li  Li78  1  0.19176813  0.66816303  0.75654499  1
  Li  Li79  1  0.47639490  0.80823187  0.75654499  1
  Li  Li80  1  0.33183697  0.52360510  0.75654499  1
  Li  Li81  1  0.19176813  0.66816303  0.24345501  1
  Li  Li82  1  0.47639490  0.80823187  0.24345501  1
  Li  Li83  1  0.33183697  0.52360510  0.24345501  1
  Li  Li84  1  0.23676471  0.00000000  0.50000000  1
  Li  Li85  1  0.00000000  0.23676471  0.50000000  1
  Li  Li86  1  0.76323529  0.76323529  0.50000000  1
  Li  Li87  1  0.06410486  -0.00000000  0.00000000  1
  Li  Li88  1  0.00000000  0.06410486  -0.00000000  1
  Li  Li89  1  0.93589514  0.93589514  -0.00000000  1
