# generated using pymatgen
data_LiF
_symmetry_space_group_name_H-M   'P 1'
_cell_length_a   16.25230257
_cell_length_b   11.58810136
_cell_length_c   7.14810640
_cell_angle_alpha   90.00000000
_cell_angle_beta   90.00000000
_cell_angle_gamma   90.00000000
_symmetry_Int_Tables_number   1
_chemical_formula_structural   LiF
_chemical_formula_sum   'Li52 F52'
_cell_volume   1346.22667799
_cell_formula_units_Z   52
loop_
 _symmetry_equiv_pos_site_id
 _symmetry_equiv_pos_as_xyz
  1  'x, y, z'
loop_
 _atom_site_type_symbol
 _atom_site_label
 _atom_site_symmetry_multiplicity
 _atom_site_fract_x
 _atom_site_fract_y
 _atom_site_fract_z
 _atom_site_occupancy
  F  F0  1  0.83399183  0.28538157  0.76615709  1
  F  F1  1  0.66600817  0.71461843  0.26615709  1
  F  F2  1  0.16600817  0.78538157  0.23384291  1
  F  F3  1  0.33399183  0.21461843  0.73384291  1
  F  F4  1  0.16600817  0.71461843  0.23384291  1
  F  F5  1  0.33399183  0.28538157  0.73384291  1
  F  F6  1  0.83399183  0.21461843  0.76615709  1
  F  F7  1  0.66600817  0.78538157  0.26615709  1
  F  F8  1  0.89717827  0.54820013  0.93316238  1
  F  F9  1  0.60282173  0.45179987  0.43316238  1
  F  F10  1  0.10282173  0.04820013  0.06683762  1
  F  F11  1  0.39717827  0.95179987  0.56683762  1
  F  F12  1  0.10282173  0.45179987  0.06683762  1
  F  F13  1  0.39717827  0.54820013  0.56683762  1
  F  F14  1  0.89717827  0.95179987  0.93316238  1
  F  F15  1  0.60282173  0.04820013  0.43316238  1
  F  F16  1  0.37499038  0.25000000  0.50894273  1
  F  F17  1  0.12500962  0.75000000  0.00894273  1
  F  F18  1  0.62500962  0.75000000  0.49105727  1
  F  F19  1  0.87499038  0.25000000  0.99105727  1
  F  F20  1  0.91788219  0.27903421  0.94798360  1
  F  F21  1  0.58211781  0.72096579  0.44798360  1
  F  F22  1  0.08211781  0.77903421  0.05201640  1
  F  F23  1  0.41788219  0.22096579  0.55201640  1
  F  F24  1  0.08211781  0.72096579  0.05201640  1
  F  F25  1  0.41788219  0.27903421  0.55201640  1
  F  F26  1  0.91788219  0.22096579  0.94798360  1
  F  F27  1  0.58211781  0.77903421  0.44798360  1
  F  F28  1  0.81537738  0.60590142  0.38151176  1
  F  F29  1  0.68462262  0.39409858  0.88151176  1
  F  F30  1  0.18462262  0.10590142  0.61848824  1
  F  F31  1  0.31537738  0.89409858  0.11848824  1
  F  F32  1  0.18462262  0.39409858  0.61848824  1
  F  F33  1  0.31537738  0.60590142  0.11848824  1
  F  F34  1  0.81537738  0.89409858  0.38151176  1
  F  F35  1  0.68462262  0.10590142  0.88151176  1
  F  F36  1  0.00000000  0.00000000  0.50000000  1
  F  F37  1  0.50000000  0.00000000  0.00000000  1
  F  F38  1  0.00000000  0.50000000  0.50000000  1
  F  F39  1  0.50000000  0.50000000  0.00000000  1
  F  F40  1  0.65603205  0.25000000  0.84420127  1
  F  F41  1  0.84396795  0.75000000  0.34420127  1
  F  F42  1  0.34396795  0.75000000  0.15579873  1
  F  F43  1  0.15603205  0.25000000  0.65579873  1
  F  F44  1  0.72764249  0.48593678  0.24055677  1
  F  F45  1  0.77235751  0.51406322  0.74055677  1
  F  F46  1  0.27235751  0.98593678  0.75944323  1
  F  F47  1  0.22764249  0.01406322  0.25944323  1
  F  F48  1  0.27235751  0.51406322  0.75944323  1
  F  F49  1  0.22764249  0.48593678  0.25944323  1
  F  F50  1  0.72764249  0.01406322  0.24055677  1
  F  F51  1  0.77235751  0.98593678  0.74055677  1
  Li  Li52  1  0.53888483  0.25000000  0.74491705  1
  Li  Li53  1  0.96111517  0.75000000  0.24491705  1
  Li  Li54  1  0.46111517  0.75000000  0.25508295  1
  Li  Li55  1  0.03888483  0.25000000  0.75508295  1
  Li  Li56  1  0.24437831  0.91623207  0.12324641  1
  Li  Li57  1  0.25562169  -0.91623207  0.62324641  1
  Li  Li58  1  -0.24437831  1.41623207  -0.12324641  1
  Li  Li59  1  0.74437831  -0.41623207  0.37675359  1
  Li  Li60  1  -0.24437831  -0.91623207  -0.12324641  1
  Li  Li61  1  0.74437831  0.91623207  0.37675359  1
  Li  Li62  1  0.24437831  -0.41623207  0.12324641  1
  Li  Li63  1  0.25562169  1.41623207  0.62324641  1
  Li  Li64  1  0.00000000  0.00000000  0.00000000  1
  Li  Li65  1  0.50000000  0.00000000  0.50000000  1
  Li  Li66  1  0.00000000  0.50000000  0.00000000  1
  Li  Li67  1  0.50000000  0.50000000  0.50000000  1
  Li  Li68  1  0.05627797  0.25000000  0.52495457  1
  Li  Li69  1  0.44372203  0.75000000  0.02495457  1
  Li  Li70  1  0.94372203  0.75000000  0.47504543  1
  Li  Li71  1  0.55627797  0.25000000  0.97504543  1
  Li  Li72  1  0.73461236  0.06431576  0.38684986  1
  Li  Li73  1  0.76538764  0.93568424  0.88684986  1
  Li  Li74  1  0.26538764  0.56431576  0.61315014  1
  Li  Li75  1  0.23461236  0.43568424  0.11315014  1
  Li  Li76  1  0.26538764  0.93568424  0.61315014  1
  Li  Li77  1  0.23461236  0.06431576  0.11315014  1
  Li  Li78  1  0.73461236  0.43568424  0.38684986  1
  Li  Li79  1  0.76538764  0.56431576  0.88684986  1
  Li  Li80  1  0.19163987  0.67449006  0.62702858  1
  Li  Li81  1  0.30836013  0.32550994  0.12702858  1
  Li  Li82  1  0.80836013  0.17449006  0.37297142  1
  Li  Li83  1  0.69163987  0.82550994  0.87297142  1
  Li  Li84  1  0.80836013  0.32550994  0.37297142  1
  Li  Li85  1  0.69163987  0.67449006  0.87297142  1
  Li  Li86  1  0.19163987  0.82550994  0.62702858  1
  Li  Li87  1  0.30836013  0.17449006  0.12702858  1
  Li  Li88  1  0.95291027  0.39871875  0.62322546  1
  Li  Li89  1  0.54708973  0.60128125  0.12322546  1
  Li  Li90  1  0.04708973  0.89871875  0.37677454  1
  Li  Li91  1  0.45291027  0.10128125  0.87677454  1
  Li  Li92  1  0.04708973  0.60128125  0.37677454  1
  Li  Li93  1  0.45291027  0.39871875  0.87677454  1
  Li  Li94  1  0.95291027  0.10128125  0.62322546  1
  Li  Li95  1  0.54708973  0.89871875  0.12322546  1
  Li  Li96  1  0.40410646  0.53206562  0.01524718  1
  Li  Li97  1  0.09589354  0.46793438  0.51524718  1
  Li  Li98  1  0.59589354  0.03206562  0.98475282  1
  Li  Li99  1  0.90410646  0.96793438  0.48475282  1
  Li  Li100  1  0.59589354  0.46793438  0.98475282  1
  Li  Li101  1  0.90410646  0.53206562  0.48475282  1
  Li  Li102  1  0.40410646  0.96793438  0.01524718  1
  Li  Li103  1  0.09589354  0.03206562  0.51524718  1
