# generated using pymatgen
data_LiF
_symmetry_space_group_name_H-M   'P 1'
_cell_length_a   5.95480761
_cell_length_b   5.65865141
_cell_length_c   5.40850747
_cell_angle_alpha   90.00000000
_cell_angle_beta   90.00000000
_cell_angle_gamma   90.00000000
_symmetry_Int_Tables_number   1
_chemical_formula_structural   LiF
_chemical_formula_sum   'Li8 F8'
_cell_volume   182.24604371
_cell_formula_units_Z   8
loop_
 _symmetry_equiv_pos_site_id
 _symmetry_equiv_pos_as_xyz
  1  'x, y, z'
loop_
 _atom_site_type_symbol
 _atom_site_label
 _atom_site_symmetry_multiplicity
 _atom_site_fract_x
 _atom_site_fract_y
 _atom_site_fract_z
 _atom_site_occupancy
  F  F0  1  0.00000000  0.00000000  0.93787275  1
  F  F1  1  0.50000000  0.50000000  0.56212725  1
  F  F2  1  0.00000000  0.00000000  0.06212725  1
  F  F3  1  0.50000000  0.50000000  0.43787275  1
  F  F4  1  0.00000000  0.50000000  0.82355356  1
  F  F5  1  0.50000000  0.00000000  0.67644644  1
  F  F6  1  0.00000000  0.50000000  0.17644644  1
  F  F7  1  0.50000000  0.00000000  0.32355356  1
  Li  Li8  1  0.84113192  0.29886788  0.25727235  1
  Li  Li9  1  -0.84113192  -0.29886788  0.25727235  1
  Li  Li10  1  -0.34113192  0.79886788  0.24272765  1
  Li  Li11  1  1.34113192  0.20113212  0.24272765  1
  Li  Li12  1  -0.84113192  -0.29886788  -0.25727235  1
  Li  Li13  1  0.84113192  0.29886788  -0.25727235  1
  Li  Li14  1  1.34113192  0.20113212  0.75727235  1
  Li  Li15  1  -0.34113192  0.79886788  0.75727235  1
