# generated using pymatgen
data_LiF
_symmetry_space_group_name_H-M   'P 1'
_cell_length_a   25.06962016
_cell_length_b   25.06962016
_cell_length_c   4.82079708
_cell_angle_alpha   90.00000000
_cell_angle_beta   90.00000000
_cell_angle_gamma   120.00000000
_symmetry_Int_Tables_number   1
_chemical_formula_structural   LiF
_chemical_formula_sum   'Li90 F90'
_cell_volume   2623.88616975
_cell_formula_units_Z   90
loop_
 _symmetry_equiv_pos_site_id
 _symmetry_equiv_pos_as_xyz
  1  'x, y, z'
loop_
 _atom_site_type_symbol
 _atom_site_label
 _atom_site_symmetry_multiplicity
 _atom_site_fract_x
 _atom_site_fract_y
 _atom_site_fract_z
 _atom_site_occupancy
  F  F0  1  0.00000000  0.00000000  0.25000000  1
  F  F1  1  0.00000000  0.00000000  0.75000000  1
  F  F2  1  0.66666667  0.33333333  0.58333333  1
  F  F3  1  0.66666667  0.33333333  0.08333333  1
  F  F4  1  0.33333333  0.66666667  0.91666667  1
  F  F5  1  0.33333333  0.66666667  0.41666667  1
  F  F6  1  0.28345326  0.21198325  0.76331980  1
  F  F7  1  0.78801675  0.07147001  0.76331980  1
  F  F8  1  0.92852999  0.71654674  0.76331980  1
  F  F9  1  0.21198325  0.28345326  0.73668020  1
  F  F10  1  0.07147001  0.78801675  0.73668020  1
  F  F11  1  0.71654674  0.92852999  0.73668020  1
  F  F12  1  0.71654674  0.78801675  0.23668020  1
  F  F13  1  0.21198325  0.92852999  0.23668020  1
  F  F14  1  0.07147001  0.28345326  0.23668020  1
  F  F15  1  0.78801675  0.71654674  0.26331980  1
  F  F16  1  0.92852999  0.21198325  0.26331980  1
  F  F17  1  0.28345326  0.07147001  0.26331980  1
  F  F18  1  0.95011993  0.54531659  0.09665313  1
  F  F19  1  0.45468341  0.40480334  0.09665313  1
  F  F20  1  0.59519666  0.04988007  0.09665313  1
  F  F21  1  0.87864992  0.61678659  0.07001353  1
  F  F22  1  0.73813667  0.12135008  0.07001353  1
  F  F23  1  0.38321341  0.26186333  0.07001353  1
  F  F24  1  0.38321341  0.12135008  0.57001353  1
  F  F25  1  0.87864992  0.26186333  0.57001353  1
  F  F26  1  0.73813667  0.61678659  0.57001353  1
  F  F27  1  0.45468341  0.04988007  0.59665313  1
  F  F28  1  0.59519666  0.54531659  0.59665313  1
  F  F29  1  0.95011993  0.40480334  0.59665313  1
  F  F30  1  0.61678659  0.87864992  0.42998647  1
  F  F31  1  0.12135008  0.73813667  0.42998647  1
  F  F32  1  0.26186333  0.38321341  0.42998647  1
  F  F33  1  0.54531659  0.95011993  0.40334687  1
  F  F34  1  0.40480334  0.45468341  0.40334687  1
  F  F35  1  0.04988007  0.59519666  0.40334687  1
  F  F36  1  0.04988007  0.45468341  0.90334687  1
  F  F37  1  0.54531659  0.59519666  0.90334687  1
  F  F38  1  0.40480334  0.95011993  0.90334687  1
  F  F39  1  0.12135008  0.38321341  0.92998647  1
  F  F40  1  0.26186333  0.87864992  0.92998647  1
  F  F41  1  0.61678659  0.73813667  0.92998647  1
  F  F42  1  0.99089837  0.78656741  0.80807585  1
  F  F43  1  0.21343259  0.20433095  0.80807585  1
  F  F44  1  0.79566905  0.00910163  0.80807585  1
  F  F45  1  0.78656741  0.99089837  0.69192415  1
  F  F46  1  0.20433095  0.21343259  0.69192415  1
  F  F47  1  0.00910163  0.79566905  0.69192415  1
  F  F48  1  0.00910163  0.21343259  0.19192415  1
  F  F49  1  0.78656741  0.79566905  0.19192415  1
  F  F50  1  0.20433095  0.99089837  0.19192415  1
  F  F51  1  0.21343259  0.00910163  0.30807585  1
  F  F52  1  0.79566905  0.78656741  0.30807585  1
  F  F53  1  0.99089837  0.20433095  0.30807585  1
  F  F54  1  0.65756503  0.11990075  0.14140919  1
  F  F55  1  0.88009925  0.53766429  0.14140919  1
  F  F56  1  0.46233571  0.34243497  0.14140919  1
  F  F57  1  0.45323408  0.32423170  0.02525748  1
  F  F58  1  0.87099762  0.54676592  0.02525748  1
  F  F59  1  0.67576830  0.12900238  0.02525748  1
  F  F60  1  0.67576830  0.54676592  0.52525748  1
  F  F61  1  0.45323408  0.12900238  0.52525748  1
  F  F62  1  0.87099762  0.32423170  0.52525748  1
  F  F63  1  0.88009925  0.34243497  0.64140919  1
  F  F64  1  0.46233571  0.11990075  0.64140919  1
  F  F65  1  0.65756503  0.53766429  0.64140919  1
  F  F66  1  0.32423170  0.45323408  0.47474252  1
  F  F67  1  0.54676592  0.87099762  0.47474252  1
  F  F68  1  0.12900238  0.67576830  0.47474252  1
  F  F69  1  0.11990075  0.65756503  0.35859081  1
  F  F70  1  0.53766429  0.88009925  0.35859081  1
  F  F71  1  0.34243497  0.46233571  0.35859081  1
  F  F72  1  0.34243497  0.88009925  0.85859081  1
  F  F73  1  0.11990075  0.46233571  0.85859081  1
  F  F74  1  0.53766429  0.65756503  0.85859081  1
  F  F75  1  0.54676592  0.67576830  0.97474252  1
  F  F76  1  0.12900238  0.45323408  0.97474252  1
  F  F77  1  0.32423170  0.87099762  0.97474252  1
  F  F78  1  0.00000000  0.00000000  0.88681632  1
  F  F79  1  0.00000000  0.00000000  0.61318368  1
  F  F80  1  0.00000000  0.00000000  0.11318368  1
  F  F81  1  0.00000000  0.00000000  0.38681632  1
  F  F82  1  0.66666667  0.33333333  0.22014966  1
  F  F83  1  0.66666667  0.33333333  0.94651701  1
  F  F84  1  0.66666667  0.33333333  0.44651701  1
  F  F85  1  0.66666667  0.33333333  0.72014966  1
  F  F86  1  0.33333333  0.66666667  0.55348299  1
  F  F87  1  0.33333333  0.66666667  0.27985034  1
  F  F88  1  0.33333333  0.66666667  0.77985034  1
  F  F89  1  0.33333333  0.66666667  0.05348299  1
  Li  Li90  1  0.75472577  0.00000000  0.25000000  1
  Li  Li91  1  0.00000000  0.75472577  0.25000000  1
  Li  Li92  1  0.24527423  0.24527423  0.25000000  1
  Li  Li93  1  0.24527423  0.00000000  0.75000000  1
  Li  Li94  1  0.00000000  0.24527423  0.75000000  1
  Li  Li95  1  0.75472577  0.75472577  0.75000000  1
  Li  Li96  1  0.42139244  0.33333333  0.58333333  1
  Li  Li97  1  0.66666667  0.08805910  0.58333333  1
  Li  Li98  1  0.91194090  0.57860756  0.58333333  1
  Li  Li99  1  0.91194090  0.33333333  0.08333333  1
  Li  Li100  1  0.66666667  0.57860756  0.08333333  1
  Li  Li101  1  0.42139244  0.08805910  0.08333333  1
  Li  Li102  1  0.08805910  0.66666667  0.91666667  1
  Li  Li103  1  0.33333333  0.42139244  0.91666667  1
  Li  Li104  1  0.57860756  0.91194090  0.91666667  1
  Li  Li105  1  0.57860756  0.66666667  0.41666667  1
  Li  Li106  1  0.33333333  0.91194090  0.41666667  1
  Li  Li107  1  0.08805910  0.42139244  0.41666667  1
  Li  Li108  1  0.93449387  0.66707581  0.17499999  1
  Li  Li109  1  -0.66707581  0.26741805  0.17499999  1
  Li  Li110  1  -0.26741805  -0.93449387  0.17499999  1
  Li  Li111  1  0.66707581  0.93449387  0.32500001  1
  Li  Li112  1  0.26741805  -0.66707581  0.32500001  1
  Li  Li113  1  -0.93449387  -0.26741805  0.32500001  1
  Li  Li114  1  -0.93449387  -0.66707581  -0.17499999  1
  Li  Li115  1  0.66707581  -0.26741805  -0.17499999  1
  Li  Li116  1  0.26741805  0.93449387  -0.17499999  1
  Li  Li117  1  -0.66707581  -0.93449387  0.67499999  1
  Li  Li118  1  -0.26741805  0.66707581  0.67499999  1
  Li  Li119  1  0.93449387  0.26741805  0.67499999  1
  Li  Li120  1  1.60116053  1.00040915  0.50833332  1
  Li  Li121  1  -0.00040915  0.60075139  0.50833332  1
  Li  Li122  1  0.39924861  -0.60116053  0.50833332  1
  Li  Li123  1  1.33374248  1.26782720  0.65833335  1
  Li  Li124  1  0.93408472  -0.33374248  0.65833335  1
  Li  Li125  1  -0.26782720  0.06591528  0.65833335  1
  Li  Li126  1  -0.26782720  -0.33374248  0.15833335  1
  Li  Li127  1  1.33374248  0.06591528  0.15833335  1
  Li  Li128  1  0.93408472  1.26782720  0.15833335  1
  Li  Li129  1  -0.00040915  -0.60116053  1.00833332  1
  Li  Li130  1  0.39924861  1.00040915  1.00833332  1
  Li  Li131  1  1.60116053  0.60075139  1.00833332  1
  Li  Li132  1  1.26782720  1.33374248  0.84166665  1
  Li  Li133  1  -0.33374248  0.93408472  0.84166665  1
  Li  Li134  1  0.06591528  -0.26782720  0.84166665  1
  Li  Li135  1  1.00040915  1.60116053  0.99166668  1
  Li  Li136  1  0.60075139  -0.00040915  0.99166668  1
  Li  Li137  1  -0.60116053  0.39924861  0.99166668  1
  Li  Li138  1  -0.60116053  -0.00040915  0.49166668  1
  Li  Li139  1  1.00040915  0.39924861  0.49166668  1
  Li  Li140  1  0.60075139  1.60116053  0.49166668  1
  Li  Li141  1  -0.33374248  -0.26782720  1.34166665  1
  Li  Li142  1  0.06591528  1.33374248  1.34166665  1
  Li  Li143  1  1.26782720  0.93408472  1.34166665  1
  Li  Li144  1  0.15944779  0.54587053  0.42220391  1
  Li  Li145  1  0.45412947  0.61357726  0.42220391  1
  Li  Li146  1  0.38642274  0.84055221  0.42220391  1
  Li  Li147  1  0.54587053  0.15944779  0.07779609  1
  Li  Li148  1  0.61357726  0.45412947  0.07779609  1
  Li  Li149  1  0.84055221  0.38642274  0.07779609  1
  Li  Li150  1  0.84055221  0.45412947  0.57779609  1
  Li  Li151  1  0.54587053  0.38642274  0.57779609  1
  Li  Li152  1  0.61357726  0.15944779  0.57779609  1
  Li  Li153  1  0.45412947  0.84055221  0.92220391  1
  Li  Li154  1  0.38642274  0.54587053  0.92220391  1
  Li  Li155  1  0.15944779  0.61357726  0.92220391  1
  Li  Li156  1  0.82611446  0.87920387  0.75553724  1
  Li  Li157  1  0.12079613  0.94691059  0.75553724  1
  Li  Li158  1  0.05308941  0.17388554  0.75553724  1
  Li  Li159  1  0.21253720  0.49278113  0.41112943  1
  Li  Li160  1  0.28024392  0.78746280  0.41112943  1
  Li  Li161  1  0.50721887  0.71975608  0.41112943  1
  Li  Li162  1  0.50721887  0.78746280  0.91112943  1
  Li  Li163  1  0.21253720  0.71975608  0.91112943  1
  Li  Li164  1  0.28024392  0.49278113  0.91112943  1
  Li  Li165  1  0.12079613  0.17388554  0.25553724  1
  Li  Li166  1  0.05308941  0.87920387  0.25553724  1
  Li  Li167  1  0.82611446  0.94691059  0.25553724  1
  Li  Li168  1  0.49278113  0.21253720  0.08887057  1
  Li  Li169  1  0.78746280  0.28024392  0.08887057  1
  Li  Li170  1  0.71975608  0.50721887  0.08887057  1
  Li  Li171  1  0.87920387  0.82611446  0.74446276  1
  Li  Li172  1  0.94691059  0.12079613  0.74446276  1
  Li  Li173  1  0.17388554  0.05308941  0.74446276  1
  Li  Li174  1  0.17388554  0.12079613  0.24446276  1
  Li  Li175  1  0.87920387  0.05308941  0.24446276  1
  Li  Li176  1  0.94691059  0.82611446  0.24446276  1
  Li  Li177  1  0.78746280  0.50721887  0.58887057  1
  Li  Li178  1  0.71975608  0.21253720  0.58887057  1
  Li  Li179  1  0.49278113  0.28024392  0.58887057  1
