# generated using pymatgen
data_Li2Y2Te4P3
_symmetry_space_group_name_H-M   'P 1'
_cell_length_a   4.04231020
_cell_length_b   4.32131238
_cell_length_c   6.75250765
_cell_angle_alpha   96.55767309
_cell_angle_beta   104.28124868
_cell_angle_gamma   116.33956651
_symmetry_Int_Tables_number   1
_chemical_formula_structural   Li2Y2Te4P3
_chemical_formula_sum   'Li2 Y2 Te4 P3'
_cell_volume   98.98569445
_cell_formula_units_Z   1
loop_
 _symmetry_equiv_pos_site_id
 _symmetry_equiv_pos_as_xyz
  1  'x, y, z'
loop_
 _atom_site_type_symbol
 _atom_site_label
 _atom_site_symmetry_multiplicity
 _atom_site_fract_x
 _atom_site_fract_y
 _atom_site_fract_z
 _atom_site_occupancy
  Y  Y0  1  0.00000000  0.00000000  0.00000000  1
  Y  Y1  1  0.33300000  0.66700000  0.25000000  1
  P  P2  1  0.66700000  0.33300000  0.50000000  1
  P  P3  1  0.00000000  0.00000000  0.75000000  1
  P  P4  1  0.40461313  0.09294257  0.43308889  1
  Li  Li5  1  0.69782781  0.49685498  0.14784966  1
  Li  Li6  1  0.13519058  0.35131416  0.00568730  1
  Te  Te7  1  0.08683279  0.90605952  0.26230353  1
  Te  Te8  1  0.68322531  0.59534722  0.73968911  1
  Te  Te9  1  0.58006387  0.34403125  0.57085205  1
  Te  Te10  1  0.02448475  0.66919219  0.05010153  1
