# generated using pymatgen
data_LiF
_symmetry_space_group_name_H-M   'P 1'
_cell_length_a   9.65523027
_cell_length_b   8.94309231
_cell_length_c   6.62752853
_cell_angle_alpha   90.00000000
_cell_angle_beta   90.00000000
_cell_angle_gamma   90.00000000
_symmetry_Int_Tables_number   1
_chemical_formula_structural   LiF
_chemical_formula_sum   'Li24 F24'
_cell_volume   572.27128566
_cell_formula_units_Z   24
loop_
 _symmetry_equiv_pos_site_id
 _symmetry_equiv_pos_as_xyz
  1  'x, y, z'
loop_
 _atom_site_type_symbol
 _atom_site_label
 _atom_site_symmetry_multiplicity
 _atom_site_fract_x
 _atom_site_fract_y
 _atom_site_fract_z
 _atom_site_occupancy
  F  F0  1  0.68289691  0.25000000  0.44489413  1
  F  F1  1  0.81710309  0.75000000  0.94489413  1
  F  F2  1  0.31710309  0.75000000  0.55510587  1
  F  F3  1  0.18289691  0.25000000  0.05510587  1
  F  F4  1  0.60645885  0.15764446  0.15918957  1
  F  F5  1  0.89354115  0.84235554  0.65918957  1
  F  F6  1  0.39354115  0.65764446  0.84081043  1
  F  F7  1  0.10645885  0.34235554  0.34081043  1
  F  F8  1  0.39354115  0.84235554  0.84081043  1
  F  F9  1  0.10645885  0.15764446  0.34081043  1
  F  F10  1  0.60645885  0.34235554  0.15918957  1
  F  F11  1  0.89354115  0.65764446  0.65918957  1
  F  F12  1  0.67869155  0.87327266  0.55896571  1
  F  F13  1  0.82130845  0.12672734  0.05896571  1
  F  F14  1  0.32130845  0.37327266  0.44103429  1
  F  F15  1  0.17869155  0.62672734  0.94103429  1
  F  F16  1  0.32130845  0.12672734  0.44103429  1
  F  F17  1  0.17869155  0.87327266  0.94103429  1
  F  F18  1  0.67869155  0.62672734  0.55896571  1
  F  F19  1  0.82130845  0.37327266  0.05896571  1
  F  F20  1  0.50448256  0.25000000  0.56387615  1
  F  F21  1  0.99551744  0.75000000  0.06387615  1
  F  F22  1  0.49551744  0.75000000  0.43612385  1
  F  F23  1  0.00448256  0.25000000  0.93612385  1
  Li  Li24  1  0.57282064  0.25000000  0.44260354  1
  Li  Li25  1  0.92717936  0.75000000  0.94260354  1
  Li  Li26  1  0.42717936  0.75000000  0.55739646  1
  Li  Li27  1  0.07282064  0.25000000  0.05739646  1
  Li  Li28  1  0.42065243  0.25000000  0.49485654  1
  Li  Li29  1  0.07934757  0.75000000  0.99485654  1
  Li  Li30  1  0.57934757  0.75000000  0.50514346  1
  Li  Li31  1  0.92065243  0.25000000  0.00514346  1
  Li  Li32  1  0.17197350  0.51083179  0.86250858  1
  Li  Li33  1  0.32802650  -0.51083179  1.36250858  1
  Li  Li34  1  -0.17197350  1.01083179  -0.86250858  1
  Li  Li35  1  0.67197350  -0.01083179  -0.36250858  1
  Li  Li36  1  -0.17197350  -0.51083179  -0.86250858  1
  Li  Li37  1  0.67197350  0.51083179  -0.36250858  1
  Li  Li38  1  0.17197350  -0.01083179  0.86250858  1
  Li  Li39  1  0.32802650  1.01083179  1.36250858  1
  Li  Li40  1  0.00000000  0.00000000  0.00000000  1
  Li  Li41  1  0.50000000  0.00000000  0.50000000  1
  Li  Li42  1  0.00000000  0.50000000  0.00000000  1
  Li  Li43  1  0.50000000  0.50000000  0.50000000  1
  Li  Li44  1  0.25023048  0.25000000  0.27252331  1
  Li  Li45  1  0.24976952  0.75000000  0.77252331  1
  Li  Li46  1  0.74976952  0.75000000  0.72747669  1
  Li  Li47  1  0.75023048  0.25000000  0.22747669  1
