# generated using pymatgen
data_LiF
_symmetry_space_group_name_H-M   'P 1'
_cell_length_a   12.55240667
_cell_length_b   9.96286599
_cell_length_c   4.45188723
_cell_angle_alpha   90.00000000
_cell_angle_beta   90.00000000
_cell_angle_gamma   90.00000000
_symmetry_Int_Tables_number   1
_chemical_formula_structural   LiF
_chemical_formula_sum   'Li28 F28'
_cell_volume   556.74387053
_cell_formula_units_Z   28
loop_
 _symmetry_equiv_pos_site_id
 _symmetry_equiv_pos_as_xyz
  1  'x, y, z'
loop_
 _atom_site_type_symbol
 _atom_site_label
 _atom_site_symmetry_multiplicity
 _atom_site_fract_x
 _atom_site_fract_y
 _atom_site_fract_z
 _atom_site_occupancy
  F  F0  1  0.65280044  0.25000000  0.22379808  1
  F  F1  1  0.84719956  0.75000000  0.72379808  1
  F  F2  1  0.34719956  0.75000000  0.77620192  1
  F  F3  1  0.15280044  0.25000000  0.27620192  1
  F  F4  1  0.32391001  0.25000000  0.82108685  1
  F  F5  1  0.17608999  0.75000000  0.32108685  1
  F  F6  1  0.67608999  0.75000000  0.17891315  1
  F  F7  1  0.82391001  0.25000000  0.67891315  1
  F  F8  1  0.06834440  0.25000000  0.40883922  1
  F  F9  1  0.43165560  0.75000000  0.90883922  1
  F  F10  1  0.93165560  0.75000000  0.59116078  1
  F  F11  1  0.56834440  0.25000000  0.09116078  1
  F  F12  1  0.78987589  0.05782901  0.50284073  1
  F  F13  1  0.71012411  0.94217099  0.00284073  1
  F  F14  1  0.21012411  0.55782901  0.49715927  1
  F  F15  1  0.28987589  0.44217099  0.99715927  1
  F  F16  1  0.21012411  0.94217099  0.49715927  1
  F  F17  1  0.28987589  0.05782901  0.99715927  1
  F  F18  1  0.78987589  0.44217099  0.50284073  1
  F  F19  1  0.71012411  0.55782901  0.00284073  1
  F  F20  1  0.70818797  0.17043552  0.74290957  1
  F  F21  1  0.79181203  0.82956448  0.24290957  1
  F  F22  1  0.29181203  0.67043552  0.25709043  1
  F  F23  1  0.20818797  0.32956448  0.75709043  1
  F  F24  1  0.29181203  0.82956448  0.25709043  1
  F  F25  1  0.20818797  0.17043552  0.75709043  1
  F  F26  1  0.70818797  0.32956448  0.74290957  1
  F  F27  1  0.79181203  0.67043552  0.24290957  1
  Li  Li28  1  0.47845458  0.50936065  0.86957868  1
  Li  Li29  1  0.02154542  -0.50936065  1.36957868  1
  Li  Li30  1  -0.47845458  1.00936065  -0.86957868  1
  Li  Li31  1  0.97845458  -0.00936065  -0.36957868  1
  Li  Li32  1  -0.47845458  -0.50936065  -0.86957868  1
  Li  Li33  1  0.97845458  0.50936065  -0.36957868  1
  Li  Li34  1  0.47845458  -0.00936065  0.86957868  1
  Li  Li35  1  0.02154542  1.00936065  1.36957868  1
  Li  Li36  1  0.43691167  0.25000000  0.92213579  1
  Li  Li37  1  0.06308833  0.75000000  0.42213579  1
  Li  Li38  1  0.56308833  0.75000000  0.07786421  1
  Li  Li39  1  0.93691167  0.25000000  0.57786421  1
  Li  Li40  1  0.18785230  0.25000000  0.61454093  1
  Li  Li41  1  0.31214770  0.75000000  0.11454093  1
  Li  Li42  1  0.81214770  0.75000000  0.38545907  1
  Li  Li43  1  0.68785230  0.25000000  0.88545907  1
  Li  Li44  1  0.30195134  0.25000000  0.18525066  1
  Li  Li45  1  0.19804866  0.75000000  0.68525066  1
  Li  Li46  1  0.69804866  0.75000000  0.81474934  1
  Li  Li47  1  0.80195134  0.25000000  0.31474934  1
  Li  Li48  1  0.26194975  0.57665927  0.15062724  1
  Li  Li49  1  0.23805025  0.42334073  0.65062724  1
  Li  Li50  1  0.73805025  0.07665927  0.84937276  1
  Li  Li51  1  0.76194975  0.92334073  0.34937276  1
  Li  Li52  1  0.73805025  0.42334073  0.84937276  1
  Li  Li53  1  0.76194975  0.57665927  0.34937276  1
  Li  Li54  1  0.26194975  0.92334073  0.15062724  1
  Li  Li55  1  0.23805025  0.07665927  0.65062724  1
