# generated using pymatgen
data_LiYSbAsP
_symmetry_space_group_name_H-M   'P 1'
_cell_length_a   5.03831089
_cell_length_b   5.02147902
_cell_length_c   7.24660079
_cell_angle_alpha   94.73950652
_cell_angle_beta   100.32165987
_cell_angle_gamma   109.03671400
_symmetry_Int_Tables_number   1
_chemical_formula_structural   LiYSbAsP
_chemical_formula_sum   'Li2 Y2 Sb2 As2 P2'
_cell_volume   168.53305891
_cell_formula_units_Z   2
loop_
 _symmetry_equiv_pos_site_id
 _symmetry_equiv_pos_as_xyz
  1  'x, y, z'
loop_
 _atom_site_type_symbol
 _atom_site_label
 _atom_site_symmetry_multiplicity
 _atom_site_fract_x
 _atom_site_fract_y
 _atom_site_fract_z
 _atom_site_occupancy
  P  P0  1  0.12500000  0.00000000  0.25000000  1
  P  P1  1  0.00000000  0.00000000  0.00000000  1
  As  As2  1  0.37500000  0.00000000  0.25000000  1
  As  As3  1  0.25000000  0.25000000  0.25000000  1
  Li  Li4  1  0.00000000  0.25000000  0.12500000  1
  Li  Li5  1  0.51892382  0.49512610  0.37094587  1
  Y  Y6  1  0.11785047  0.39352740  0.47308807  1
  Y  Y7  1  0.65176745  0.50069076  0.03420234  1
  Sb  Sb8  1  0.93119289  0.35594083  0.16575455  1
  Sb  Sb9  1  0.21019200  0.81008284  0.73053668  1
