# generated using pymatgen
data_LiF
_symmetry_space_group_name_H-M   'P 1'
_cell_length_a   11.48175943
_cell_length_b   11.48175943
_cell_length_c   7.57122802
_cell_angle_alpha   90.00000000
_cell_angle_beta   90.00000000
_cell_angle_gamma   90.00000000
_symmetry_Int_Tables_number   1
_chemical_formula_structural   LiF
_chemical_formula_sum   'Li40 F40'
_cell_volume   998.12104399
_cell_formula_units_Z   40
loop_
 _symmetry_equiv_pos_site_id
 _symmetry_equiv_pos_as_xyz
  1  'x, y, z'
loop_
 _atom_site_type_symbol
 _atom_site_label
 _atom_site_symmetry_multiplicity
 _atom_site_fract_x
 _atom_site_fract_y
 _atom_site_fract_z
 _atom_site_occupancy
  F  F0  1  0.00000000  0.00000000  0.24705270  1
  F  F1  1  0.00000000  0.00000000  0.75294730  1
  F  F2  1  0.70485724  0.70485724  0.93391286  1
  F  F3  1  0.29514276  0.29514276  0.93391286  1
  F  F4  1  0.29514276  0.70485724  0.93391286  1
  F  F5  1  0.70485724  0.29514276  0.93391286  1
  F  F6  1  0.29514276  0.70485724  0.06608714  1
  F  F7  1  0.70485724  0.29514276  0.06608714  1
  F  F8  1  0.70485724  0.70485724  0.06608714  1
  F  F9  1  0.29514276  0.29514276  0.06608714  1
  F  F10  1  0.13196424  0.00000000  0.64916853  1
  F  F11  1  0.86803576  0.00000000  0.64916853  1
  F  F12  1  0.00000000  0.13196424  0.64916853  1
  F  F13  1  0.00000000  0.86803576  0.64916853  1
  F  F14  1  0.86803576  0.00000000  0.35083147  1
  F  F15  1  0.13196424  0.00000000  0.35083147  1
  F  F16  1  0.00000000  0.13196424  0.35083147  1
  F  F17  1  0.00000000  0.86803576  0.35083147  1
  F  F18  1  0.93645406  0.00000000  0.82979635  1
  F  F19  1  0.06354594  0.00000000  0.82979635  1
  F  F20  1  0.00000000  0.93645406  0.82979635  1
  F  F21  1  0.00000000  0.06354594  0.82979635  1
  F  F22  1  0.06354594  0.00000000  0.17020365  1
  F  F23  1  0.93645406  0.00000000  0.17020365  1
  F  F24  1  0.00000000  0.93645406  0.17020365  1
  F  F25  1  0.00000000  0.06354594  0.17020365  1
  F  F26  1  0.23107993  0.50000000  0.50000000  1
  F  F27  1  0.76892007  0.50000000  0.50000000  1
  F  F28  1  0.50000000  0.23107993  0.50000000  1
  F  F29  1  0.50000000  0.76892007  0.50000000  1
  F  F30  1  0.22432471  0.00000000  0.30424838  1
  F  F31  1  0.77567529  0.00000000  0.30424838  1
  F  F32  1  0.00000000  0.22432471  0.30424838  1
  F  F33  1  0.00000000  0.77567529  0.30424838  1
  F  F34  1  0.77567529  0.00000000  0.69575162  1
  F  F35  1  0.22432471  0.00000000  0.69575162  1
  F  F36  1  0.00000000  0.22432471  0.69575162  1
  F  F37  1  0.00000000  0.77567529  0.69575162  1
  F  F38  1  0.50000000  0.50000000  0.15071892  1
  F  F39  1  0.50000000  0.50000000  0.84928108  1
  Li  Li40  1  0.00000000  0.00000000  0.00000000  1
  Li  Li41  1  0.64346585  0.00000000  0.81567629  1
  Li  Li42  1  0.35653415  0.00000000  0.81567629  1
  Li  Li43  1  0.00000000  0.64346585  0.81567629  1
  Li  Li44  1  0.00000000  0.35653415  0.81567629  1
  Li  Li45  1  0.35653415  0.00000000  0.18432371  1
  Li  Li46  1  0.64346585  0.00000000  0.18432371  1
  Li  Li47  1  0.00000000  0.64346585  0.18432371  1
  Li  Li48  1  0.00000000  0.35653415  0.18432371  1
  Li  Li49  1  0.09191743  0.50000000  0.68504117  1
  Li  Li50  1  0.90808257  0.50000000  0.68504117  1
  Li  Li51  1  0.50000000  0.09191743  0.68504117  1
  Li  Li52  1  0.50000000  0.90808257  0.68504117  1
  Li  Li53  1  0.90808257  0.50000000  0.31495883  1
  Li  Li54  1  0.09191743  0.50000000  0.31495883  1
  Li  Li55  1  0.50000000  0.09191743  0.31495883  1
  Li  Li56  1  0.50000000  0.90808257  0.31495883  1
  Li  Li57  1  0.27104448  0.14046677  0.87035748  1
  Li  Li58  1  -0.27104448  -0.14046677  0.87035748  1
  Li  Li59  1  -0.14046677  0.27104448  0.87035748  1
  Li  Li60  1  0.14046677  -0.27104448  0.87035748  1
  Li  Li61  1  -0.27104448  0.14046677  -0.87035748  1
  Li  Li62  1  0.27104448  -0.14046677  -0.87035748  1
  Li  Li63  1  0.14046677  0.27104448  -0.87035748  1
  Li  Li64  1  -0.14046677  -0.27104448  -0.87035748  1
  Li  Li65  1  -0.27104448  -0.14046677  -0.87035748  1
  Li  Li66  1  0.27104448  0.14046677  -0.87035748  1
  Li  Li67  1  0.14046677  -0.27104448  -0.87035748  1
  Li  Li68  1  -0.14046677  0.27104448  -0.87035748  1
  Li  Li69  1  0.27104448  -0.14046677  0.87035748  1
  Li  Li70  1  -0.27104448  0.14046677  0.87035748  1
  Li  Li71  1  -0.14046677  -0.27104448  0.87035748  1
  Li  Li72  1  0.14046677  0.27104448  0.87035748  1
  Li  Li73  1  0.00000000  0.50000000  0.00000000  1
  Li  Li74  1  0.50000000  0.00000000  0.00000000  1
  Li  Li75  1  0.18004860  0.18004860  0.00000000  1
  Li  Li76  1  0.81995140  0.81995140  0.00000000  1
  Li  Li77  1  0.81995140  0.18004860  0.00000000  1
  Li  Li78  1  0.18004860  0.81995140  0.00000000  1
  Li  Li79  1  0.50000000  0.50000000  0.00000000  1
