# generated using pymatgen
data_LiF
_symmetry_space_group_name_H-M   'P 1'
_cell_length_a   9.39058618
_cell_length_b   9.39058618
_cell_length_c   29.67887973
_cell_angle_alpha   90.00000000
_cell_angle_beta   90.00000000
_cell_angle_gamma   120.00000000
_symmetry_Int_Tables_number   1
_chemical_formula_structural   LiF
_chemical_formula_sum   'Li84 F84'
_cell_volume   2266.54079958
_cell_formula_units_Z   84
loop_
 _symmetry_equiv_pos_site_id
 _symmetry_equiv_pos_as_xyz
  1  'x, y, z'
loop_
 _atom_site_type_symbol
 _atom_site_label
 _atom_site_symmetry_multiplicity
 _atom_site_fract_x
 _atom_site_fract_y
 _atom_site_fract_z
 _atom_site_occupancy
  F  F0  1  0.00000000  0.00000000  0.25000000  1
  F  F1  1  0.00000000  0.00000000  0.75000000  1
  F  F2  1  0.66666667  0.33333333  0.58333333  1
  F  F3  1  0.66666667  0.33333333  0.08333333  1
  F  F4  1  0.33333333  0.66666667  0.91666667  1
  F  F5  1  0.33333333  0.66666667  0.41666667  1
  F  F6  1  0.00000000  0.00000000  0.00000000  1
  F  F7  1  0.00000000  0.00000000  0.50000000  1
  F  F8  1  0.66666667  0.33333333  0.33333333  1
  F  F9  1  0.66666667  0.33333333  0.83333333  1
  F  F10  1  0.33333333  0.66666667  0.66666667  1
  F  F11  1  0.33333333  0.66666667  0.16666667  1
  F  F12  1  0.26489955  0.99069007  0.40374946  1
  F  F13  1  0.00930993  0.27420948  0.40374946  1
  F  F14  1  0.72579052  0.73510045  0.40374946  1
  F  F15  1  0.99069007  0.26489955  0.09625054  1
  F  F16  1  0.27420948  0.00930993  0.09625054  1
  F  F17  1  0.73510045  0.72579052  0.09625054  1
  F  F18  1  0.73510045  0.00930993  0.59625054  1
  F  F19  1  0.99069007  0.72579052  0.59625054  1
  F  F20  1  0.27420948  0.26489955  0.59625054  1
  F  F21  1  0.00930993  0.73510045  0.90374946  1
  F  F22  1  0.72579052  0.99069007  0.90374946  1
  F  F23  1  0.26489955  0.27420948  0.90374946  1
  F  F24  1  0.93156622  0.32402341  0.73708279  1
  F  F25  1  0.67597659  0.60754281  0.73708279  1
  F  F26  1  0.39245719  0.06843378  0.73708279  1
  F  F27  1  0.65735674  0.59823288  0.42958388  1
  F  F28  1  0.94087614  0.34264326  0.42958388  1
  F  F29  1  0.40176712  0.05912386  0.42958388  1
  F  F30  1  0.40176712  0.34264326  0.92958388  1
  F  F31  1  0.65735674  0.05912386  0.92958388  1
  F  F32  1  0.94087614  0.59823288  0.92958388  1
  F  F33  1  0.67597659  0.06843378  0.23708279  1
  F  F34  1  0.39245719  0.32402341  0.23708279  1
  F  F35  1  0.93156622  0.60754281  0.23708279  1
  F  F36  1  0.59823288  0.65735674  0.07041612  1
  F  F37  1  0.34264326  0.94087614  0.07041612  1
  F  F38  1  0.05912386  0.40176712  0.07041612  1
  F  F39  1  0.32402341  0.93156622  0.76291721  1
  F  F40  1  0.60754281  0.67597659  0.76291721  1
  F  F41  1  0.06843378  0.39245719  0.76291721  1
  F  F42  1  0.06843378  0.67597659  0.26291721  1
  F  F43  1  0.32402341  0.39245719  0.26291721  1
  F  F44  1  0.60754281  0.93156622  0.26291721  1
  F  F45  1  0.34264326  0.40176712  0.57041612  1
  F  F46  1  0.05912386  0.65735674  0.57041612  1
  F  F47  1  0.59823288  0.94087614  0.57041612  1
  F  F48  1  0.50000000  0.00000000  0.00000000  1
  F  F49  1  0.00000000  0.50000000  0.00000000  1
  F  F50  1  0.50000000  0.50000000  0.00000000  1
  F  F51  1  0.00000000  0.50000000  0.50000000  1
  F  F52  1  0.50000000  0.00000000  0.50000000  1
  F  F53  1  0.50000000  0.50000000  0.50000000  1
  F  F54  1  0.16666667  0.33333333  0.33333333  1
  F  F55  1  0.66666667  0.83333333  0.33333333  1
  F  F56  1  0.16666667  0.83333333  0.33333333  1
  F  F57  1  0.66666667  0.83333333  0.83333333  1
  F  F58  1  0.16666667  0.33333333  0.83333333  1
  F  F59  1  0.16666667  0.83333333  0.83333333  1
  F  F60  1  0.83333333  0.66666667  0.66666667  1
  F  F61  1  0.33333333  0.16666667  0.66666667  1
  F  F62  1  0.83333333  0.16666667  0.66666667  1
  F  F63  1  0.33333333  0.16666667  0.16666667  1
  F  F64  1  0.83333333  0.66666667  0.16666667  1
  F  F65  1  0.83333333  0.16666667  0.16666667  1
  F  F66  1  0.45027253  0.00000000  0.25000000  1
  F  F67  1  0.00000000  0.45027253  0.25000000  1
  F  F68  1  0.54972747  0.54972747  0.25000000  1
  F  F69  1  0.54972747  0.00000000  0.75000000  1
  F  F70  1  0.00000000  0.54972747  0.75000000  1
  F  F71  1  0.45027253  0.45027253  0.75000000  1
  F  F72  1  0.11693919  0.33333333  0.58333333  1
  F  F73  1  0.66666667  0.78360586  0.58333333  1
  F  F74  1  0.21639414  0.88306081  0.58333333  1
  F  F75  1  0.21639414  0.33333333  0.08333333  1
  F  F76  1  0.66666667  0.88306081  0.08333333  1
  F  F77  1  0.11693919  0.78360586  0.08333333  1
  F  F78  1  0.78360586  0.66666667  0.91666667  1
  F  F79  1  0.33333333  0.11693919  0.91666667  1
  F  F80  1  0.88306081  0.21639414  0.91666667  1
  F  F81  1  0.88306081  0.66666667  0.41666667  1
  F  F82  1  0.33333333  0.21639414  0.41666667  1
  F  F83  1  0.78360586  0.11693919  0.41666667  1
  Li  Li84  1  0.27986116  0.84290725  0.04188706  1
  Li  Li85  1  -0.84290725  -0.56304609  0.04188706  1
  Li  Li86  1  0.56304609  -0.27986116  0.04188706  1
  Li  Li87  1  0.84290725  0.27986116  0.45811294  1
  Li  Li88  1  -0.56304609  -0.84290725  0.45811294  1
  Li  Li89  1  -0.27986116  0.56304609  0.45811294  1
  Li  Li90  1  -0.27986116  -0.84290725  -0.04188706  1
  Li  Li91  1  0.84290725  0.56304609  -0.04188706  1
  Li  Li92  1  -0.56304609  0.27986116  -0.04188706  1
  Li  Li93  1  -0.84290725  -0.27986116  0.54188706  1
  Li  Li94  1  0.56304609  0.84290725  0.54188706  1
  Li  Li95  1  0.27986116  -0.56304609  0.54188706  1
  Li  Li96  1  0.94652783  1.17624059  0.37522039  1
  Li  Li97  1  -0.17624059  -0.22971276  0.37522039  1
  Li  Li98  1  1.22971276  0.05347217  0.37522039  1
  Li  Li99  1  1.50957392  0.61319449  0.79144628  1
  Li  Li100  1  0.10362058  -0.50957392  0.79144628  1
  Li  Li101  1  0.38680551  0.89637942  0.79144628  1
  Li  Li102  1  0.38680551  -0.50957392  0.29144628  1
  Li  Li103  1  1.50957392  0.89637942  0.29144628  1
  Li  Li104  1  0.10362058  0.61319449  0.29144628  1
  Li  Li105  1  -0.17624059  0.05347217  0.87522039  1
  Li  Li106  1  1.22971276  1.17624059  0.87522039  1
  Li  Li107  1  0.94652783  -0.22971276  0.87522039  1
  Li  Li108  1  0.61319449  1.50957392  0.70855372  1
  Li  Li109  1  -0.50957392  0.10362058  0.70855372  1
  Li  Li110  1  0.89637942  0.38680551  0.70855372  1
  Li  Li111  1  1.17624059  0.94652783  1.12477961  1
  Li  Li112  1  -0.22971276  -0.17624059  1.12477961  1
  Li  Li113  1  0.05347217  1.22971276  1.12477961  1
  Li  Li114  1  0.05347217  -0.17624059  0.62477961  1
  Li  Li115  1  1.17624059  1.22971276  0.62477961  1
  Li  Li116  1  -0.22971276  0.94652783  0.62477961  1
  Li  Li117  1  -0.50957392  0.38680551  1.20855372  1
  Li  Li118  1  0.89637942  1.50957392  1.20855372  1
  Li  Li119  1  0.61319449  0.10362058  1.20855372  1
  Li  Li120  1  0.70969519  0.47265367  0.84301638  1
  Li  Li121  1  0.52734633  0.23704152  0.84301638  1
  Li  Li122  1  0.76295848  0.29030481  0.84301638  1
  Li  Li123  1  0.47265367  0.70969519  0.65698362  1
  Li  Li124  1  0.23704152  0.52734633  0.65698362  1
  Li  Li125  1  0.29030481  0.76295848  0.65698362  1
  Li  Li126  1  0.29030481  0.52734633  0.15698362  1
  Li  Li127  1  0.47265367  0.76295848  0.15698362  1
  Li  Li128  1  0.23704152  0.70969519  0.15698362  1
  Li  Li129  1  0.52734633  0.29030481  0.34301638  1
  Li  Li130  1  0.76295848  0.47265367  0.34301638  1
  Li  Li131  1  0.70969519  0.23704152  0.34301638  1
  Li  Li132  1  0.37636186  0.80598701  0.17634972  1
  Li  Li133  1  0.19401299  0.57037485  0.17634972  1
  Li  Li134  1  0.42962515  0.62363814  0.17634972  1
  Li  Li135  1  0.13932034  0.04302853  0.99031695  1
  Li  Li136  1  0.90370819  0.86067966  0.99031695  1
  Li  Li137  1  0.95697147  0.09629181  0.99031695  1
  Li  Li138  1  0.95697147  0.86067966  0.49031695  1
  Li  Li139  1  0.13932034  0.09629181  0.49031695  1
  Li  Li140  1  0.90370819  0.04302853  0.49031695  1
  Li  Li141  1  0.19401299  0.62363814  0.67634972  1
  Li  Li142  1  0.42962515  0.80598701  0.67634972  1
  Li  Li143  1  0.37636186  0.57037485  0.67634972  1
  Li  Li144  1  0.04302853  0.13932034  0.50968305  1
  Li  Li145  1  0.86067966  0.90370819  0.50968305  1
  Li  Li146  1  0.09629181  0.95697147  0.50968305  1
  Li  Li147  1  0.80598701  0.37636186  0.32365028  1
  Li  Li148  1  0.57037485  0.19401299  0.32365028  1
  Li  Li149  1  0.62363814  0.42962515  0.32365028  1
  Li  Li150  1  0.62363814  0.19401299  0.82365028  1
  Li  Li151  1  0.80598701  0.42962515  0.82365028  1
  Li  Li152  1  0.57037485  0.37636186  0.82365028  1
  Li  Li153  1  0.86067966  0.95697147  0.00968305  1
  Li  Li154  1  0.09629181  0.13932034  0.00968305  1
  Li  Li155  1  0.04302853  0.90370819  0.00968305  1
  Li  Li156  1  0.00000000  0.00000000  0.38092029  1
  Li  Li157  1  0.00000000  0.00000000  0.11907971  1
  Li  Li158  1  0.00000000  0.00000000  0.61907971  1
  Li  Li159  1  0.00000000  0.00000000  0.88092029  1
  Li  Li160  1  0.66666667  0.33333333  0.71425362  1
  Li  Li161  1  0.66666667  0.33333333  0.45241305  1
  Li  Li162  1  0.66666667  0.33333333  0.95241305  1
  Li  Li163  1  0.66666667  0.33333333  0.21425362  1
  Li  Li164  1  0.33333333  0.66666667  0.04758695  1
  Li  Li165  1  0.33333333  0.66666667  0.78574638  1
  Li  Li166  1  0.33333333  0.66666667  0.28574638  1
  Li  Li167  1  0.33333333  0.66666667  0.54758695  1
