# generated using pymatgen
data_LiF
_symmetry_space_group_name_H-M   'P 1'
_cell_length_a   8.63499522
_cell_length_b   8.63499522
_cell_length_c   14.19898477
_cell_angle_alpha   90.00000000
_cell_angle_beta   90.00000000
_cell_angle_gamma   120.00000000
_symmetry_Int_Tables_number   1
_chemical_formula_structural   LiF
_chemical_formula_sum   'Li39 F39'
_cell_volume   916.87921574
_cell_formula_units_Z   39
loop_
 _symmetry_equiv_pos_site_id
 _symmetry_equiv_pos_as_xyz
  1  'x, y, z'
loop_
 _atom_site_type_symbol
 _atom_site_label
 _atom_site_symmetry_multiplicity
 _atom_site_fract_x
 _atom_site_fract_y
 _atom_site_fract_z
 _atom_site_occupancy
  F  F0  1  0.66666667  0.33333333  0.03696577  1
  F  F1  1  0.66666667  0.33333333  0.96303423  1
  F  F2  1  0.01967408  0.27782899  0.92653805  1
  F  F3  1  0.72217101  0.74184509  0.92653805  1
  F  F4  1  0.25815491  0.98032592  0.92653805  1
  F  F5  1  0.72217101  0.98032592  0.07346195  1
  F  F6  1  0.25815491  0.27782899  0.07346195  1
  F  F7  1  0.01967408  0.74184509  0.07346195  1
  F  F8  1  0.81775870  0.62639913  0.64555396  1
  F  F9  1  0.37360087  0.19135958  0.64555396  1
  F  F10  1  0.80864042  0.18224130  0.64555396  1
  F  F11  1  0.37360087  0.18224130  0.35444604  1
  F  F12  1  0.80864042  0.62639913  0.35444604  1
  F  F13  1  0.81775870  0.19135958  0.35444604  1
  F  F14  1  0.95308548  0.14951615  0.35404368  1
  F  F15  1  0.85048385  0.80356933  0.35404368  1
  F  F16  1  0.19643067  0.04691452  0.35404368  1
  F  F17  1  0.85048385  0.04691452  0.64595632  1
  F  F18  1  0.19643067  0.14951615  0.64595632  1
  F  F19  1  0.95308548  0.80356933  0.64595632  1
  F  F20  1  0.98458375  0.34714258  0.73122913  1
  F  F21  1  0.65285742  0.63744118  0.73122913  1
  F  F22  1  0.36255882  0.01541625  0.73122913  1
  F  F23  1  0.65285742  0.01541625  0.26877087  1
  F  F24  1  0.36255882  0.34714258  0.26877087  1
  F  F25  1  0.98458375  0.63744118  0.26877087  1
  F  F26  1  0.32959506  0.93970367  0.37668745  1
  F  F27  1  0.06029633  0.38989139  0.37668745  1
  F  F28  1  0.61010861  0.67040494  0.37668745  1
  F  F29  1  0.06029633  0.67040494  0.62331255  1
  F  F30  1  0.61010861  0.93970367  0.62331255  1
  F  F31  1  0.32959506  0.38989139  0.62331255  1
  F  F32  1  0.98940617  0.68179073  0.35330857  1
  F  F33  1  0.31820927  0.30761544  0.35330857  1
  F  F34  1  0.69238456  0.01059383  0.35330857  1
  F  F35  1  0.31820927  0.01059383  0.64669143  1
  F  F36  1  0.69238456  0.68179073  0.64669143  1
  F  F37  1  0.98940617  0.30761544  0.64669143  1
  F  F38  1  0.33333333  0.66666667  0.50000000  1
  Li  Li39  1  0.76079450  0.81969525  0.85120781  1
  Li  Li40  1  -0.81969525  -0.05890075  0.85120781  1
  Li  Li41  1  0.05890075  -0.76079450  0.85120781  1
  Li  Li42  1  -0.81969525  -0.76079450  -0.85120781  1
  Li  Li43  1  0.05890075  0.81969525  -0.85120781  1
  Li  Li44  1  0.76079450  -0.05890075  -0.85120781  1
  Li  Li45  1  0.93116744  0.28032757  0.44889011  1
  Li  Li46  1  0.71967243  0.65083987  0.44889011  1
  Li  Li47  1  0.34916013  0.06883256  0.44889011  1
  Li  Li48  1  0.71967243  0.06883256  0.55110989  1
  Li  Li49  1  0.34916013  0.28032757  0.55110989  1
  Li  Li50  1  0.93116744  0.65083987  0.55110989  1
  Li  Li51  1  0.00000000  0.00000000  0.50000000  1
  Li  Li52  1  0.33333333  0.66666667  0.16549112  1
  Li  Li53  1  0.33333333  0.66666667  0.83450888  1
  Li  Li54  1  0.70285884  0.05290928  0.12836863  1
  Li  Li55  1  0.94709072  0.64994956  0.12836863  1
  Li  Li56  1  0.35005044  0.29714116  0.12836863  1
  Li  Li57  1  0.94709072  0.29714116  0.87163137  1
  Li  Li58  1  0.35005044  0.05290928  0.87163137  1
  Li  Li59  1  0.70285884  0.64994956  0.87163137  1
  Li  Li60  1  0.66666667  0.33333333  0.50000000  1
  Li  Li61  1  0.59992017  0.74713081  0.80787111  1
  Li  Li62  1  0.25286919  0.85278936  0.80787111  1
  Li  Li63  1  0.14721064  0.40007983  0.80787111  1
  Li  Li64  1  0.25286919  0.40007983  0.19212889  1
  Li  Li65  1  0.14721064  0.74713081  0.19212889  1
  Li  Li66  1  0.59992017  0.85278936  0.19212889  1
  Li  Li67  1  0.09701885  0.70466918  0.75508790  1
  Li  Li68  1  0.29533082  0.39234967  0.75508790  1
  Li  Li69  1  0.60765033  0.90298115  0.75508790  1
  Li  Li70  1  0.29533082  0.90298115  0.24491210  1
  Li  Li71  1  0.60765033  0.70466918  0.24491210  1
  Li  Li72  1  0.09701885  0.39234967  0.24491210  1
  Li  Li73  1  0.25909769  0.74090231  0.50000000  1
  Li  Li74  1  0.25909769  0.51819538  0.50000000  1
  Li  Li75  1  0.48180462  0.74090231  0.50000000  1
  Li  Li76  1  0.33333333  0.66666667  0.58730777  1
  Li  Li77  1  0.33333333  0.66666667  0.41269223  1
