# generated using pymatgen
data_Li3Y2(P2Se)2
_symmetry_space_group_name_H-M   'P 1'
_cell_length_a   5.51927959
_cell_length_b   5.85872447
_cell_length_c   7.39884373
_cell_angle_alpha   93.77805705
_cell_angle_beta   98.22782282
_cell_angle_gamma   105.17495362
_symmetry_Int_Tables_number   1
_chemical_formula_structural   Li3Y2(P2Se)2
_chemical_formula_sum   'Li3 Y2 P4 Se2'
_cell_volume   227.18776421
_cell_formula_units_Z   1
loop_
 _symmetry_equiv_pos_site_id
 _symmetry_equiv_pos_as_xyz
  1  'x, y, z'
loop_
 _atom_site_type_symbol
 _atom_site_label
 _atom_site_symmetry_multiplicity
 _atom_site_fract_x
 _atom_site_fract_y
 _atom_site_fract_z
 _atom_site_occupancy
  Se  Se0  1  0.00000000  0.00000000  0.00000000  1
  Se  Se1  1  0.33300000  0.66700000  0.25000000  1
  P  P2  1  0.66700000  0.33300000  0.50000000  1
  P  P3  1  0.00000000  0.00000000  0.75000000  1
  P  P4  1  0.12928402  0.12636885  0.83050544  1
  P  P5  1  0.82490144  0.66758852  0.92943198  1
  Li  Li6  1  0.38972903  0.77202336  0.33785096  1
  Li  Li7  1  0.79997835  0.56674792  0.57842157  1
  Li  Li8  1  0.47922205  0.03284930  0.22302454  1
  Y  Y9  1  0.96318024  0.02086270  0.84126723  1
  Y  Y10  1  0.91211477  0.91581817  0.71115453  1
