# generated using pymatgen
data_Li2Y2Te4MoP2
_symmetry_space_group_name_H-M   'P 1'
_cell_length_a   5.10557590
_cell_length_b   5.17879053
_cell_length_c   7.24106724
_cell_angle_alpha   94.69223071
_cell_angle_beta   100.21870299
_cell_angle_gamma   108.84682587
_symmetry_Int_Tables_number   1
_chemical_formula_structural   Li2Y2Te4MoP2
_chemical_formula_sum   'Li2 Y2 Te4 Mo1 P2'
_cell_volume   176.31953199
_cell_formula_units_Z   1
loop_
 _symmetry_equiv_pos_site_id
 _symmetry_equiv_pos_as_xyz
  1  'x, y, z'
loop_
 _atom_site_type_symbol
 _atom_site_label
 _atom_site_symmetry_multiplicity
 _atom_site_fract_x
 _atom_site_fract_y
 _atom_site_fract_z
 _atom_site_occupancy
  Te  Te0  1  0.00000000  0.00000000  0.00000000  1
  Te  Te1  1  0.50000000  0.50000000  0.50000000  1
  Te  Te2  1  0.25000000  0.25000000  0.25000000  1
  Te  Te3  1  0.75000000  0.25000000  0.00000000  1
  Y  Y4  1  0.25000000  0.75000000  0.50000000  1
  Y  Y5  1  0.35466581  0.97016244  0.87009047  1
  P  P6  1  0.21005857  0.25914284  0.80147655  1
  P  P7  1  0.32308063  0.02080570  0.44149889  1
  Mo  Mo8  1  0.96276170  0.58081360  0.35784391  1
  Li  Li9  1  0.94312393  0.28917659  0.02988618  1
  Li  Li10  1  0.30198545  0.04716258  0.17366228  1
