# generated using pymatgen
data_LiF
_symmetry_space_group_name_H-M   'P 1'
_cell_length_a   10.19472519
_cell_length_b   8.38313425
_cell_length_c   16.07879775
_cell_angle_alpha   90.00000000
_cell_angle_beta   90.00000000
_cell_angle_gamma   90.00000000
_symmetry_Int_Tables_number   1
_chemical_formula_structural   LiF
_chemical_formula_sum   'Li68 F68'
_cell_volume   1374.15434887
_cell_formula_units_Z   68
loop_
 _symmetry_equiv_pos_site_id
 _symmetry_equiv_pos_as_xyz
  1  'x, y, z'
loop_
 _atom_site_type_symbol
 _atom_site_label
 _atom_site_symmetry_multiplicity
 _atom_site_fract_x
 _atom_site_fract_y
 _atom_site_fract_z
 _atom_site_occupancy
  F  F0  1  0.83450203  0.83173980  0.65273315  1
  F  F1  1  0.66549797  0.16826020  0.15273315  1
  F  F2  1  0.16549797  0.33173980  0.34726685  1
  F  F3  1  0.33450203  0.66826020  0.84726685  1
  F  F4  1  0.16549797  0.16826020  0.34726685  1
  F  F5  1  0.33450203  0.83173980  0.84726685  1
  F  F6  1  0.83450203  0.66826020  0.65273315  1
  F  F7  1  0.66549797  0.33173980  0.15273315  1
  F  F8  1  0.08225196  0.25000000  0.38679781  1
  F  F9  1  0.41774804  0.75000000  0.88679781  1
  F  F10  1  0.91774804  0.75000000  0.61320219  1
  F  F11  1  0.58225196  0.25000000  0.11320219  1
  F  F12  1  0.43630406  0.61634137  0.69958023  1
  F  F13  1  0.06369594  0.38365863  0.19958023  1
  F  F14  1  0.56369594  0.11634137  0.30041977  1
  F  F15  1  0.93630406  0.88365863  0.80041977  1
  F  F16  1  0.56369594  0.38365863  0.30041977  1
  F  F17  1  0.93630406  0.61634137  0.80041977  1
  F  F18  1  0.43630406  0.88365863  0.69958023  1
  F  F19  1  0.06369594  0.11634137  0.19958023  1
  F  F20  1  0.57760006  0.44777864  0.57170701  1
  F  F21  1  0.92239994  0.55222136  0.07170701  1
  F  F22  1  0.42239994  0.94777864  0.42829299  1
  F  F23  1  0.07760006  0.05222136  0.92829299  1
  F  F24  1  0.42239994  0.55222136  0.42829299  1
  F  F25  1  0.07760006  0.44777864  0.92829299  1
  F  F26  1  0.57760006  0.05222136  0.57170701  1
  F  F27  1  0.92239994  0.94777864  0.07170701  1
  F  F28  1  0.86518424  0.25000000  0.87476084  1
  F  F29  1  0.63481576  0.75000000  0.37476084  1
  F  F30  1  0.13481576  0.75000000  0.12523916  1
  F  F31  1  0.36518424  0.25000000  0.62523916  1
  F  F32  1  0.30197418  0.91575825  0.78544167  1
  F  F33  1  0.19802582  0.08424175  0.28544167  1
  F  F34  1  0.69802582  0.41575825  0.21455833  1
  F  F35  1  0.80197418  0.58424175  0.71455833  1
  F  F36  1  0.69802582  0.08424175  0.21455833  1
  F  F37  1  0.80197418  0.91575825  0.71455833  1
  F  F38  1  0.30197418  0.58424175  0.78544167  1
  F  F39  1  0.19802582  0.41575825  0.28544167  1
  F  F40  1  0.96455675  0.25000000  0.91550103  1
  F  F41  1  0.53544325  0.75000000  0.41550103  1
  F  F42  1  0.03544325  0.75000000  0.08449897  1
  F  F43  1  0.46455675  0.25000000  0.58449897  1
  F  F44  1  0.52644311  0.32653319  0.07692527  1
  F  F45  1  0.97355689  0.67346681  0.57692527  1
  F  F46  1  0.47355689  0.82653319  0.92307473  1
  F  F47  1  0.02644311  0.17346681  0.42307473  1
  F  F48  1  0.47355689  0.67346681  0.92307473  1
  F  F49  1  0.02644311  0.32653319  0.42307473  1
  F  F50  1  0.52644311  0.17346681  0.07692527  1
  F  F51  1  0.97355689  0.82653319  0.57692527  1
  F  F52  1  0.87526426  0.68517699  0.15491722  1
  F  F53  1  0.62473574  0.31482301  0.65491722  1
  F  F54  1  0.12473574  0.18517699  0.84508278  1
  F  F55  1  0.37526426  0.81482301  0.34508278  1
  F  F56  1  0.12473574  0.31482301  0.84508278  1
  F  F57  1  0.37526426  0.68517699  0.34508278  1
  F  F58  1  0.87526426  0.81482301  0.15491722  1
  F  F59  1  0.62473574  0.18517699  0.65491722  1
  F  F60  1  0.73393923  0.25000000  0.47979600  1
  F  F61  1  0.76606077  0.75000000  0.97979600  1
  F  F62  1  0.26606077  0.75000000  0.52020400  1
  F  F63  1  0.23393923  0.25000000  0.02020400  1
  F  F64  1  0.71008096  0.25000000  0.03192901  1
  F  F65  1  0.78991904  0.75000000  0.53192901  1
  F  F66  1  0.28991904  0.75000000  0.96807099  1
  F  F67  1  0.21008096  0.25000000  0.46807099  1
  Li  Li68  1  0.58923421  0.53590397  0.35813702  1
  Li  Li69  1  -0.08923421  -0.53590397  0.85813702  1
  Li  Li70  1  -0.58923421  1.03590397  -0.35813702  1
  Li  Li71  1  1.08923421  -0.03590397  0.14186298  1
  Li  Li72  1  -0.58923421  -0.53590397  -0.35813702  1
  Li  Li73  1  1.08923421  0.53590397  0.14186298  1
  Li  Li74  1  0.58923421  -0.03590397  0.35813702  1
  Li  Li75  1  -0.08923421  1.03590397  0.85813702  1
  Li  Li76  1  0.46353435  0.25000000  0.78788072  1
  Li  Li77  1  0.03646565  0.75000000  0.28788072  1
  Li  Li78  1  0.53646565  0.75000000  0.21211928  1
  Li  Li79  1  0.96353435  0.25000000  0.71211928  1
  Li  Li80  1  0.00000000  0.00000000  0.00000000  1
  Li  Li81  1  0.50000000  0.00000000  0.50000000  1
  Li  Li82  1  0.00000000  0.50000000  0.00000000  1
  Li  Li83  1  0.50000000  0.50000000  0.50000000  1
  Li  Li84  1  0.77674624  0.25000000  0.94324710  1
  Li  Li85  1  0.72325376  0.75000000  0.44324710  1
  Li  Li86  1  0.22325376  0.75000000  0.05675290  1
  Li  Li87  1  0.27674624  0.25000000  0.55675290  1
  Li  Li88  1  0.26216464  0.25000000  0.66266087  1
  Li  Li89  1  0.23783536  0.75000000  0.16266087  1
  Li  Li90  1  0.73783536  0.75000000  0.33733913  1
  Li  Li91  1  0.76216464  0.25000000  0.83733913  1
  Li  Li92  1  0.56234579  0.05575565  0.87113073  1
  Li  Li93  1  0.93765421  0.94424435  0.37113073  1
  Li  Li94  1  0.43765421  0.55575565  0.12886927  1
  Li  Li95  1  0.06234579  0.44424435  0.62886927  1
  Li  Li96  1  0.43765421  0.94424435  0.12886927  1
  Li  Li97  1  0.06234579  0.05575565  0.62886927  1
  Li  Li98  1  0.56234579  0.44424435  0.87113073  1
  Li  Li99  1  0.93765421  0.55575565  0.37113073  1
  Li  Li100  1  0.99163915  0.25000000  0.97396773  1
  Li  Li101  1  0.50836085  0.75000000  0.47396773  1
  Li  Li102  1  0.00836085  0.75000000  0.02603227  1
  Li  Li103  1  0.49163915  0.25000000  0.52603227  1
  Li  Li104  1  0.69015165  0.43190408  0.07738611  1
  Li  Li105  1  0.80984835  0.56809592  0.57738611  1
  Li  Li106  1  0.30984835  0.93190408  0.92261389  1
  Li  Li107  1  0.19015165  0.06809592  0.42261389  1
  Li  Li108  1  0.30984835  0.56809592  0.92261389  1
  Li  Li109  1  0.19015165  0.43190408  0.42261389  1
  Li  Li110  1  0.69015165  0.06809592  0.07738611  1
  Li  Li111  1  0.80984835  0.93190408  0.57738611  1
  Li  Li112  1  0.00000000  0.00000000  0.50000000  1
  Li  Li113  1  0.50000000  0.00000000  0.00000000  1
  Li  Li114  1  0.00000000  0.50000000  0.50000000  1
  Li  Li115  1  0.50000000  0.50000000  0.00000000  1
  Li  Li116  1  0.29724288  0.37544432  0.35926518  1
  Li  Li117  1  0.20275712  0.62455568  0.85926518  1
  Li  Li118  1  0.70275712  0.87544432  0.64073482  1
  Li  Li119  1  0.79724288  0.12455568  0.14073482  1
  Li  Li120  1  0.70275712  0.62455568  0.64073482  1
  Li  Li121  1  0.79724288  0.37544432  0.14073482  1
  Li  Li122  1  0.29724288  0.12455568  0.35926518  1
  Li  Li123  1  0.20275712  0.87544432  0.85926518  1
  Li  Li124  1  0.30838576  0.25000000  0.18429955  1
  Li  Li125  1  0.19161424  0.75000000  0.68429955  1
  Li  Li126  1  0.69161424  0.75000000  0.81570045  1
  Li  Li127  1  0.80838576  0.25000000  0.31570045  1
  Li  Li128  1  0.31380001  0.59097821  0.61504678  1
  Li  Li129  1  0.18619999  0.40902179  0.11504678  1
  Li  Li130  1  0.68619999  0.09097821  0.38495322  1
  Li  Li131  1  0.81380001  0.90902179  0.88495322  1
  Li  Li132  1  0.68619999  0.40902179  0.38495322  1
  Li  Li133  1  0.81380001  0.59097821  0.88495322  1
  Li  Li134  1  0.31380001  0.90902179  0.61504678  1
  Li  Li135  1  0.18619999  0.09097821  0.11504678  1
