# generated using pymatgen
data_LiYP2Se
_symmetry_space_group_name_H-M   'P 1'
_cell_length_a   3.85299409
_cell_length_b   4.13104576
_cell_length_c   6.73488040
_cell_angle_alpha   96.76966224
_cell_angle_beta   104.74291697
_cell_angle_gamma   117.19104267
_symmetry_Int_Tables_number   1
_chemical_formula_structural   LiYP2Se
_chemical_formula_sum   'Li2 Y2 P4 Se2'
_cell_volume   88.72998692
_cell_formula_units_Z   2
loop_
 _symmetry_equiv_pos_site_id
 _symmetry_equiv_pos_as_xyz
  1  'x, y, z'
loop_
 _atom_site_type_symbol
 _atom_site_label
 _atom_site_symmetry_multiplicity
 _atom_site_fract_x
 _atom_site_fract_y
 _atom_site_fract_z
 _atom_site_occupancy
  P  P0  1  0.12500000  0.00000000  0.25000000  1
  P  P1  1  0.00000000  0.00000000  0.00000000  1
  P  P2  1  0.37500000  0.00000000  0.25000000  1
  P  P3  1  0.25000000  0.25000000  0.25000000  1
  Se  Se4  1  0.00000000  0.25000000  0.12500000  1
  Se  Se5  1  0.96599169  0.63985799  0.34056508  1
  Li  Li6  1  0.70984135  0.58769247  0.47853389  1
  Li  Li7  1  0.27240950  0.60232849  0.92888882  1
  Y  Y8  1  0.37071056  0.06709303  0.02374712  1
  Y  Y9  1  0.66841722  0.74914989  0.11445333  1
