# generated using pymatgen
data_Li2Y2As4P3
_symmetry_space_group_name_H-M   'P 1'
_cell_length_a   4.19616556
_cell_length_b   4.38667332
_cell_length_c   6.76491978
_cell_angle_alpha   96.14939679
_cell_angle_beta   103.39210777
_cell_angle_gamma   114.69968287
_symmetry_Int_Tables_number   1
_chemical_formula_structural   Li2Y2As4P3
_chemical_formula_sum   'Li2 Y2 As4 P3'
_cell_volume   107.08541618
_cell_formula_units_Z   1
loop_
 _symmetry_equiv_pos_site_id
 _symmetry_equiv_pos_as_xyz
  1  'x, y, z'
loop_
 _atom_site_type_symbol
 _atom_site_label
 _atom_site_symmetry_multiplicity
 _atom_site_fract_x
 _atom_site_fract_y
 _atom_site_fract_z
 _atom_site_occupancy
  P  P0  1  0.00000000  0.00000000  0.00000000  1
  P  P1  1  0.50000000  0.50000000  0.50000000  1
  P  P2  1  0.25000000  0.25000000  0.25000000  1
  As  As3  1  0.75000000  0.25000000  0.00000000  1
  As  As4  1  0.25000000  0.75000000  0.50000000  1
  As  As5  1  0.81761993  0.72535525  0.52379815  1
  As  As6  1  0.75365410  0.75927480  0.56756698  1
  Li  Li7  1  0.19077594  0.43231298  0.57174205  1
  Li  Li8  1  0.12060124  0.66803377  0.09812935  1
  Y  Y9  1  0.27384133  0.03220785  0.67125925  1
  Y  Y10  1  0.92094803  0.74803203  0.81174850  1
