# generated using pymatgen
data_LiF
_symmetry_space_group_name_H-M   'P 1'
_cell_length_a   7.07050826
_cell_length_b   6.57900475
_cell_length_c   11.38740314
_cell_angle_alpha   90.00000000
_cell_angle_beta   90.00000000
_cell_angle_gamma   90.00000000
_symmetry_Int_Tables_number   1
_chemical_formula_structural   LiF
_chemical_formula_sum   'Li20 F20'
_cell_volume   529.70677799
_cell_formula_units_Z   20
loop_
 _symmetry_equiv_pos_site_id
 _symmetry_equiv_pos_as_xyz
  1  'x, y, z'
loop_
 _atom_site_type_symbol
 _atom_site_label
 _atom_site_symmetry_multiplicity
 _atom_site_fract_x
 _atom_site_fract_y
 _atom_site_fract_z
 _atom_site_occupancy
  F  F0  1  0.00000000  0.00000000  0.00000000  1
  F  F1  1  0.50000000  0.50000000  0.00000000  1
  F  F2  1  0.00000000  0.50000000  0.72796005  1
  F  F3  1  0.50000000  0.00000000  0.27203995  1
  F  F4  1  0.00000000  0.50000000  0.27203995  1
  F  F5  1  0.50000000  0.00000000  0.72796005  1
  F  F6  1  0.26606739  0.90860475  0.59100201  1
  F  F7  1  -0.26606739  -0.90860475  0.59100201  1
  F  F8  1  0.23393261  1.40860475  -0.59100201  1
  F  F9  1  0.76606739  -0.40860475  -0.59100201  1
  F  F10  1  -0.26606739  -0.90860475  -0.59100201  1
  F  F11  1  0.26606739  0.90860475  -0.59100201  1
  F  F12  1  0.76606739  -0.40860475  0.59100201  1
  F  F13  1  0.23393261  1.40860475  0.59100201  1
  F  F14  1  0.61513920  0.20894640  0.50000000  1
  F  F15  1  0.38486080  0.79105360  0.50000000  1
  F  F16  1  0.88486080  0.70894640  0.50000000  1
  F  F17  1  0.11513920  0.29105360  0.50000000  1
  F  F18  1  0.00000000  0.50000000  0.50000000  1
  F  F19  1  0.50000000  0.00000000  0.50000000  1
  Li  Li20  1  0.35356127  0.67777315  0.82577741  1
  Li  Li21  1  0.64643873  0.32222685  0.82577741  1
  Li  Li22  1  0.14643873  0.17777315  0.17422259  1
  Li  Li23  1  0.85356127  0.82222685  0.17422259  1
  Li  Li24  1  0.64643873  0.32222685  0.17422259  1
  Li  Li25  1  0.35356127  0.67777315  0.17422259  1
  Li  Li26  1  0.85356127  0.82222685  0.82577741  1
  Li  Li27  1  0.14643873  0.17777315  0.82577741  1
  Li  Li28  1  0.65742198  0.61295618  0.50000000  1
  Li  Li29  1  0.34257802  0.38704382  0.50000000  1
  Li  Li30  1  0.84257802  0.11295618  0.50000000  1
  Li  Li31  1  0.15742198  0.88704382  0.50000000  1
  Li  Li32  1  0.00000000  0.00000000  0.12238802  1
  Li  Li33  1  0.50000000  0.50000000  0.87761198  1
  Li  Li34  1  0.00000000  0.00000000  0.87761198  1
  Li  Li35  1  0.50000000  0.50000000  0.12238802  1
  Li  Li36  1  0.48750631  0.23616596  0.00000000  1
  Li  Li37  1  0.51249369  0.76383404  0.00000000  1
  Li  Li38  1  0.01249369  0.73616596  0.00000000  1
  Li  Li39  1  0.98750631  0.26383404  0.00000000  1
