# generated using pymatgen
data_LiF
_symmetry_space_group_name_H-M   'P 1'
_cell_length_a   12.81284916
_cell_length_b   16.82807349
_cell_length_c   8.63343962
_cell_angle_alpha   90.00000000
_cell_angle_beta   90.00000000
_cell_angle_gamma   90.00000000
_symmetry_Int_Tables_number   1
_chemical_formula_structural   LiF
_chemical_formula_sum   'Li58 F58'
_cell_volume   1861.50398034
_cell_formula_units_Z   58
loop_
 _symmetry_equiv_pos_site_id
 _symmetry_equiv_pos_as_xyz
  1  'x, y, z'
loop_
 _atom_site_type_symbol
 _atom_site_label
 _atom_site_symmetry_multiplicity
 _atom_site_fract_x
 _atom_site_fract_y
 _atom_site_fract_z
 _atom_site_occupancy
  F  F0  1  0.00000000  0.50000000  0.00000000  1
  F  F1  1  0.50000000  0.00000000  0.00000000  1
  F  F2  1  0.76749921  0.18318110  0.55057123  1
  F  F3  1  0.23250079  0.81681890  0.55057123  1
  F  F4  1  0.73250079  0.68318110  0.44942877  1
  F  F5  1  0.26749921  0.31681890  0.44942877  1
  F  F6  1  0.23250079  0.81681890  0.44942877  1
  F  F7  1  0.76749921  0.18318110  0.44942877  1
  F  F8  1  0.26749921  0.31681890  0.55057123  1
  F  F9  1  0.73250079  0.68318110  0.55057123  1
  F  F10  1  0.23516035  0.33841975  0.50000000  1
  F  F11  1  0.76483965  0.66158025  0.50000000  1
  F  F12  1  0.26483965  0.83841975  0.50000000  1
  F  F13  1  0.73516035  0.16158025  0.50000000  1
  F  F14  1  0.50525671  0.56250941  0.64398574  1
  F  F15  1  0.49474329  0.43749059  0.64398574  1
  F  F16  1  0.99474329  0.06250941  0.35601426  1
  F  F17  1  0.00525671  0.93749059  0.35601426  1
  F  F18  1  0.49474329  0.43749059  0.35601426  1
  F  F19  1  0.50525671  0.56250941  0.35601426  1
  F  F20  1  0.00525671  0.93749059  0.64398574  1
  F  F21  1  0.99474329  0.06250941  0.64398574  1
  F  F22  1  0.03368726  0.61049954  0.00000000  1
  F  F23  1  0.96631274  0.38950046  0.00000000  1
  F  F24  1  0.46631274  0.11049954  -0.00000000  1
  F  F25  1  0.53368726  0.88950046  0.00000000  1
  F  F26  1  0.06614869  0.87181522  0.50000000  1
  F  F27  1  0.93385131  0.12818478  0.50000000  1
  F  F28  1  0.43385131  0.37181522  0.50000000  1
  F  F29  1  0.56614869  0.62818478  0.50000000  1
  F  F30  1  0.00000000  0.00000000  0.57932083  1
  F  F31  1  0.50000000  0.50000000  0.42067917  1
  F  F32  1  0.00000000  0.00000000  0.42067917  1
  F  F33  1  0.50000000  0.50000000  0.57932083  1
  F  F34  1  0.22000038  0.42302168  0.46289562  1
  F  F35  1  0.77999962  0.57697832  0.46289562  1
  F  F36  1  0.27999962  0.92302168  0.53710438  1
  F  F37  1  0.72000038  0.07697832  0.53710438  1
  F  F38  1  0.77999962  0.57697832  0.53710438  1
  F  F39  1  0.22000038  0.42302168  0.53710438  1
  F  F40  1  0.72000038  0.07697832  0.46289562  1
  F  F41  1  0.27999962  0.92302168  0.46289562  1
  F  F42  1  0.84966670  0.19620521  0.12437518  1
  F  F43  1  0.15033330  0.80379479  0.12437518  1
  F  F44  1  0.65033330  0.69620521  0.87562482  1
  F  F45  1  0.34966670  0.30379479  0.87562482  1
  F  F46  1  0.15033330  0.80379479  0.87562482  1
  F  F47  1  0.84966670  0.19620521  0.87562482  1
  F  F48  1  0.34966670  0.30379479  0.12437518  1
  F  F49  1  0.65033330  0.69620521  0.12437518  1
  F  F50  1  0.30493492  0.16500872  0.04386417  1
  F  F51  1  0.69506508  0.83499128  0.04386417  1
  F  F52  1  0.19506508  0.66500872  0.95613583  1
  F  F53  1  0.80493492  0.33499128  0.95613583  1
  F  F54  1  0.69506508  0.83499128  0.95613583  1
  F  F55  1  0.30493492  0.16500872  0.95613583  1
  F  F56  1  0.80493492  0.33499128  0.04386417  1
  F  F57  1  0.19506508  0.66500872  0.04386417  1
  Li  Li58  1  0.43610723  0.03925329  0.86780739  1
  Li  Li59  1  -0.43610723  -0.03925329  0.86780739  1
  Li  Li60  1  0.06389277  0.53925329  -0.86780739  1
  Li  Li61  1  0.93610723  0.46074671  -0.86780739  1
  Li  Li62  1  -0.43610723  -0.03925329  -0.86780739  1
  Li  Li63  1  0.43610723  0.03925329  -0.86780739  1
  Li  Li64  1  0.93610723  0.46074671  0.86780739  1
  Li  Li65  1  0.06389277  0.53925329  0.86780739  1
  Li  Li66  1  0.00000000  0.00000000  0.00000000  1
  Li  Li67  1  0.50000000  0.50000000  0.00000000  1
  Li  Li68  1  0.00000000  0.00000000  0.27043523  1
  Li  Li69  1  0.50000000  0.50000000  0.72956477  1
  Li  Li70  1  0.00000000  0.00000000  0.72956477  1
  Li  Li71  1  0.50000000  0.50000000  0.27043523  1
  Li  Li72  1  0.63652402  0.61413490  0.00000000  1
  Li  Li73  1  0.36347598  0.38586510  0.00000000  1
  Li  Li74  1  0.86347598  0.11413490  -0.00000000  1
  Li  Li75  1  0.13652402  0.88586510  0.00000000  1
  Li  Li76  1  0.00000000  0.50000000  0.76492363  1
  Li  Li77  1  0.50000000  0.00000000  0.23507637  1
  Li  Li78  1  0.00000000  0.50000000  0.23507637  1
  Li  Li79  1  0.50000000  0.00000000  0.76492363  1
  Li  Li80  1  0.63190376  0.31229318  0.71662717  1
  Li  Li81  1  0.36809624  0.68770682  0.71662717  1
  Li  Li82  1  0.86809624  0.81229318  0.28337283  1
  Li  Li83  1  0.13190376  0.18770682  0.28337283  1
  Li  Li84  1  0.36809624  0.68770682  0.28337283  1
  Li  Li85  1  0.63190376  0.31229318  0.28337283  1
  Li  Li86  1  0.13190376  0.18770682  0.71662717  1
  Li  Li87  1  0.86809624  0.81229318  0.71662717  1
  Li  Li88  1  0.46840407  0.73667319  0.50000000  1
  Li  Li89  1  0.53159593  0.26332681  0.50000000  1
  Li  Li90  1  0.03159593  0.23667319  0.50000000  1
  Li  Li91  1  0.96840407  0.76332681  0.50000000  1
  Li  Li92  1  0.35709714  0.23494344  0.12117915  1
  Li  Li93  1  0.64290286  0.76505656  0.12117915  1
  Li  Li94  1  0.14290286  0.73494344  0.87882085  1
  Li  Li95  1  0.85709714  0.26505656  0.87882085  1
  Li  Li96  1  0.64290286  0.76505656  0.87882085  1
  Li  Li97  1  0.35709714  0.23494344  0.87882085  1
  Li  Li98  1  0.85709714  0.26505656  0.12117915  1
  Li  Li99  1  0.14290286  0.73494344  0.12117915  1
  Li  Li100  1  0.00000000  0.50000000  0.42138826  1
  Li  Li101  1  0.50000000  0.00000000  0.57861174  1
  Li  Li102  1  0.00000000  0.50000000  0.57861174  1
  Li  Li103  1  0.50000000  0.00000000  0.42138826  1
  Li  Li104  1  0.78998050  0.75229889  0.81993758  1
  Li  Li105  1  0.21001950  0.24770111  0.81993758  1
  Li  Li106  1  0.71001950  0.25229889  0.18006242  1
  Li  Li107  1  0.28998050  0.74770111  0.18006242  1
  Li  Li108  1  0.21001950  0.24770111  0.18006242  1
  Li  Li109  1  0.78998050  0.75229889  0.18006242  1
  Li  Li110  1  0.28998050  0.74770111  0.81993758  1
  Li  Li111  1  0.71001950  0.25229889  0.81993758  1
  Li  Li112  1  0.29558220  0.05092655  0.00000000  1
  Li  Li113  1  0.70441780  0.94907345  0.00000000  1
  Li  Li114  1  0.20441780  0.55092655  0.00000000  1
  Li  Li115  1  0.79558220  0.44907345  0.00000000  1
