# generated using pymatgen
data_Li2Ca3F8
_symmetry_space_group_name_H-M   'P 1'
_cell_length_a   7.23144007
_cell_length_b   7.23144007
_cell_length_c   33.26503221
_cell_angle_alpha   90.00000000
_cell_angle_beta   90.00000000
_cell_angle_gamma   90.00000000
_symmetry_Int_Tables_number   1
_chemical_formula_structural   Li2Ca3F8
_chemical_formula_sum   'Li16 Ca24 F64'
_cell_volume   1739.55246070
_cell_formula_units_Z   8
loop_
 _symmetry_equiv_pos_site_id
 _symmetry_equiv_pos_as_xyz
  1  'x, y, z'
loop_
 _atom_site_type_symbol
 _atom_site_label
 _atom_site_symmetry_multiplicity
 _atom_site_fract_x
 _atom_site_fract_y
 _atom_site_fract_z
 _atom_site_occupancy
  Ca  Ca0  1  0.00000000  0.25000000  0.02034456  1
  Ca  Ca1  1  0.00000000  0.75000000  0.27034456  1
  Ca  Ca2  1  0.50000000  0.25000000  0.97965544  1
  Ca  Ca3  1  0.50000000  0.75000000  0.72965544  1
  Ca  Ca4  1  0.00000000  0.75000000  0.97965544  1
  Ca  Ca5  1  0.00000000  0.25000000  0.72965544  1
  Ca  Ca6  1  0.50000000  0.75000000  0.02034456  1
  Ca  Ca7  1  0.50000000  0.25000000  0.27034456  1
  Ca  Ca8  1  0.50000000  0.75000000  0.52034456  1
  Ca  Ca9  1  0.50000000  0.25000000  0.77034456  1
  Ca  Ca10  1  0.00000000  0.75000000  0.47965544  1
  Ca  Ca11  1  0.00000000  0.25000000  0.22965544  1
  Ca  Ca12  1  0.50000000  0.25000000  0.47965544  1
  Ca  Ca13  1  0.50000000  0.75000000  0.22965544  1
  Ca  Ca14  1  0.00000000  0.25000000  0.52034456  1
  Ca  Ca15  1  0.00000000  0.75000000  0.77034456  1
  Ca  Ca16  1  0.00000000  0.25000000  0.12500000  1
  Ca  Ca17  1  0.00000000  0.75000000  0.37500000  1
  Ca  Ca18  1  0.00000000  0.75000000  0.87500000  1
  Ca  Ca19  1  0.00000000  0.25000000  0.62500000  1
  Ca  Ca20  1  0.50000000  0.75000000  0.62500000  1
  Ca  Ca21  1  0.50000000  0.25000000  0.87500000  1
  Ca  Ca22  1  0.50000000  0.25000000  0.37500000  1
  Ca  Ca23  1  0.50000000  0.75000000  0.12500000  1
  F  F24  1  0.32179890  0.46061200  0.79487520  1
  F  F25  1  0.17820110  -0.46061200  1.29487520  1
  F  F26  1  -0.21061200  1.07179890  1.04487520  1
  F  F27  1  0.71061200  -0.07179890  1.54487520  1
  F  F28  1  0.17820110  0.46061200  -0.79487520  1
  F  F29  1  0.32179890  -0.46061200  -0.29487520  1
  F  F30  1  0.71061200  1.07179890  -0.04487520  1
  F  F31  1  -0.21061200  -0.07179890  -0.54487520  1
  F  F32  1  -0.32179890  -0.46061200  -0.79487520  1
  F  F33  1  0.82179890  0.46061200  -0.29487520  1
  F  F34  1  1.21061200  -0.07179890  -0.04487520  1
  F  F35  1  0.28938800  1.07179890  -0.54487520  1
  F  F36  1  0.82179890  -0.46061200  0.79487520  1
  F  F37  1  -0.32179890  0.46061200  1.29487520  1
  F  F38  1  0.28938800  -0.07179890  1.04487520  1
  F  F39  1  1.21061200  1.07179890  1.54487520  1
  F  F40  1  0.82179890  0.96061200  1.29487520  1
  F  F41  1  0.67820110  0.03938800  1.79487520  1
  F  F42  1  0.28938800  1.57179890  1.54487520  1
  F  F43  1  1.21061200  0.42820110  2.04487520  1
  F  F44  1  0.67820110  0.96061200  -0.29487520  1
  F  F45  1  0.82179890  0.03938800  0.20512480  1
  F  F46  1  1.21061200  1.57179890  0.45512480  1
  F  F47  1  0.28938800  0.42820110  -0.04487520  1
  F  F48  1  0.17820110  0.03938800  -0.29487520  1
  F  F49  1  1.32179890  0.96061200  0.20512480  1
  F  F50  1  1.71061200  0.42820110  0.45512480  1
  F  F51  1  0.78938800  1.57179890  -0.04487520  1
  F  F52  1  1.32179890  0.03938800  1.29487520  1
  F  F53  1  0.17820110  0.96061200  1.79487520  1
  F  F54  1  0.78938800  0.42820110  1.54487520  1
  F  F55  1  1.71061200  1.57179890  2.04487520  1
  F  F56  1  0.52701222  0.00833271  0.98633141  1
  F  F57  1  0.97298778  0.99166729  0.48633141  1
  F  F58  1  0.24166729  0.27701222  0.23633141  1
  F  F59  1  0.25833271  0.72298778  0.73633141  1
  F  F60  1  0.97298778  0.00833271  0.01366859  1
  F  F61  1  0.52701222  0.99166729  0.51366859  1
  F  F62  1  0.25833271  0.27701222  0.76366859  1
  F  F63  1  0.24166729  0.72298778  0.26366859  1
  F  F64  1  0.47298778  0.99166729  0.01366859  1
  F  F65  1  0.02701222  0.00833271  0.51366859  1
  F  F66  1  0.75833271  0.72298778  0.76366859  1
  F  F67  1  0.74166729  0.27701222  0.26366859  1
  F  F68  1  0.02701222  0.99166729  0.98633141  1
  F  F69  1  0.47298778  0.00833271  0.48633141  1
  F  F70  1  0.74166729  0.72298778  0.23633141  1
  F  F71  1  0.75833271  0.27701222  0.73633141  1
  F  F72  1  0.02701222  0.50833271  0.48633141  1
  F  F73  1  0.47298778  0.49166729  0.98633141  1
  F  F74  1  0.74166729  0.77701222  0.73633141  1
  F  F75  1  0.75833271  0.22298778  0.23633141  1
  F  F76  1  0.47298778  0.50833271  0.51366859  1
  F  F77  1  0.02701222  0.49166729  0.01366859  1
  F  F78  1  0.75833271  0.77701222  0.26366859  1
  F  F79  1  0.74166729  0.22298778  0.76366859  1
  F  F80  1  0.97298778  0.49166729  0.51366859  1
  F  F81  1  0.52701222  0.50833271  0.01366859  1
  F  F82  1  0.25833271  0.22298778  0.26366859  1
  F  F83  1  0.24166729  0.77701222  0.76366859  1
  F  F84  1  0.52701222  0.49166729  0.48633141  1
  F  F85  1  0.97298778  0.50833271  0.98633141  1
  F  F86  1  0.24166729  0.22298778  0.73633141  1
  F  F87  1  0.25833271  0.77701222  0.23633141  1
  Li  Li88  1  0.00000000  0.25000000  0.85036635  1
  Li  Li89  1  0.00000000  0.75000000  0.10036635  1
  Li  Li90  1  0.50000000  0.25000000  0.14963365  1
  Li  Li91  1  0.50000000  0.75000000  0.89963365  1
  Li  Li92  1  0.00000000  0.75000000  0.14963365  1
  Li  Li93  1  0.00000000  0.25000000  0.89963365  1
  Li  Li94  1  0.50000000  0.75000000  0.85036635  1
  Li  Li95  1  0.50000000  0.25000000  0.10036635  1
  Li  Li96  1  0.50000000  0.75000000  0.35036635  1
  Li  Li97  1  0.50000000  0.25000000  0.60036635  1
  Li  Li98  1  0.00000000  0.75000000  0.64963365  1
  Li  Li99  1  0.00000000  0.25000000  0.39963365  1
  Li  Li100  1  0.50000000  0.25000000  0.64963365  1
  Li  Li101  1  0.50000000  0.75000000  0.39963365  1
  Li  Li102  1  0.00000000  0.25000000  0.35036635  1
  Li  Li103  1  0.00000000  0.75000000  0.60036635  1
