# generated using pymatgen
data_LiF
_symmetry_space_group_name_H-M   'P 1'
_cell_length_a   8.82571624
_cell_length_b   5.37534661
_cell_length_c   11.51557667
_cell_angle_alpha   90.00000000
_cell_angle_beta   90.00000000
_cell_angle_gamma   90.00000000
_symmetry_Int_Tables_number   1
_chemical_formula_structural   LiF
_chemical_formula_sum   'Li32 F32'
_cell_volume   546.31374149
_cell_formula_units_Z   32
loop_
 _symmetry_equiv_pos_site_id
 _symmetry_equiv_pos_as_xyz
  1  'x, y, z'
loop_
 _atom_site_type_symbol
 _atom_site_label
 _atom_site_symmetry_multiplicity
 _atom_site_fract_x
 _atom_site_fract_y
 _atom_site_fract_z
 _atom_site_occupancy
  F  F0  1  0.41379455  0.25000000  0.96109657  1
  F  F1  1  0.08620545  0.75000000  0.46109657  1
  F  F2  1  0.58620545  0.75000000  0.03890343  1
  F  F3  1  0.91379455  0.25000000  0.53890343  1
  F  F4  1  0.50886442  0.99478578  0.61319351  1
  F  F5  1  0.99113558  0.00521422  0.11319351  1
  F  F6  1  0.49113558  0.49478578  0.38680649  1
  F  F7  1  0.00886442  0.50521422  0.88680649  1
  F  F8  1  0.49113558  0.00521422  0.38680649  1
  F  F9  1  0.00886442  0.99478578  0.88680649  1
  F  F10  1  0.50886442  0.50521422  0.61319351  1
  F  F11  1  0.99113558  0.49478578  0.11319351  1
  F  F12  1  0.39422888  0.18281733  0.78543023  1
  F  F13  1  0.10577112  0.81718267  0.28543023  1
  F  F14  1  0.60577112  0.68281733  0.21456977  1
  F  F15  1  0.89422888  0.31718267  0.71456977  1
  F  F16  1  0.60577112  0.81718267  0.21456977  1
  F  F17  1  0.89422888  0.18281733  0.71456977  1
  F  F18  1  0.39422888  0.31718267  0.78543023  1
  F  F19  1  0.10577112  0.68281733  0.28543023  1
  F  F20  1  0.64950936  0.25000000  0.88571472  1
  F  F21  1  0.85049064  0.75000000  0.38571472  1
  F  F22  1  0.35049064  0.75000000  0.11428528  1
  F  F23  1  0.14950936  0.25000000  0.61428528  1
  F  F24  1  0.78464781  0.61570191  0.95017366  1
  F  F25  1  0.71535219  0.38429809  0.45017366  1
  F  F26  1  0.21535219  0.11570191  0.04982634  1
  F  F27  1  0.28464781  0.88429809  0.54982634  1
  F  F28  1  0.21535219  0.38429809  0.04982634  1
  F  F29  1  0.28464781  0.61570191  0.54982634  1
  F  F30  1  0.78464781  0.88429809  0.95017366  1
  F  F31  1  0.71535219  0.11570191  0.45017366  1
  Li  Li32  1  0.18894384  0.47730649  0.40678790  1
  Li  Li33  1  0.31105616  -0.47730649  0.90678790  1
  Li  Li34  1  -0.18894384  0.97730649  -0.40678790  1
  Li  Li35  1  0.68894384  0.02269351  0.09321210  1
  Li  Li36  1  -0.18894384  -0.47730649  -0.40678790  1
  Li  Li37  1  0.68894384  0.47730649  0.09321210  1
  Li  Li38  1  0.18894384  0.02269351  0.40678790  1
  Li  Li39  1  0.31105616  0.97730649  0.90678790  1
  Li  Li40  1  0.46249982  0.05024413  0.71013491  1
  Li  Li41  1  0.03750018  0.94975587  0.21013491  1
  Li  Li42  1  0.53750018  0.55024413  0.28986509  1
  Li  Li43  1  0.96249982  0.44975587  0.78986509  1
  Li  Li44  1  0.53750018  0.94975587  0.28986509  1
  Li  Li45  1  0.96249982  0.05024413  0.78986509  1
  Li  Li46  1  0.46249982  0.44975587  0.71013491  1
  Li  Li47  1  0.03750018  0.55024413  0.21013491  1
  Li  Li48  1  0.00000000  0.00000000  0.00000000  1
  Li  Li49  1  0.50000000  0.00000000  0.50000000  1
  Li  Li50  1  0.00000000  0.50000000  0.00000000  1
  Li  Li51  1  0.50000000  0.50000000  0.50000000  1
  Li  Li52  1  0.08176058  0.25000000  0.07136383  1
  Li  Li53  1  0.41823942  0.75000000  0.57136383  1
  Li  Li54  1  0.91823942  0.75000000  0.92863617  1
  Li  Li55  1  0.58176058  0.25000000  0.42863617  1
  Li  Li56  1  0.05114135  0.25000000  0.18970712  1
  Li  Li57  1  0.44885865  0.75000000  0.68970712  1
  Li  Li58  1  0.94885865  0.75000000  0.81029288  1
  Li  Li59  1  0.55114135  0.25000000  0.31029288  1
  Li  Li60  1  0.00000000  0.00000000  0.50000000  1
  Li  Li61  1  0.50000000  0.00000000  0.00000000  1
  Li  Li62  1  0.00000000  0.50000000  0.50000000  1
  Li  Li63  1  0.50000000  0.50000000  0.00000000  1
