# generated using pymatgen
data_LiF
_symmetry_space_group_name_H-M   'P 1'
_cell_length_a   3.79769374
_cell_length_b   16.26840033
_cell_length_c   8.67861354
_cell_angle_alpha   90.00000000
_cell_angle_beta   90.00000000
_cell_angle_gamma   90.00000000
_symmetry_Int_Tables_number   1
_chemical_formula_structural   LiF
_chemical_formula_sum   'Li24 F24'
_cell_volume   536.18559235
_cell_formula_units_Z   24
loop_
 _symmetry_equiv_pos_site_id
 _symmetry_equiv_pos_as_xyz
  1  'x, y, z'
loop_
 _atom_site_type_symbol
 _atom_site_label
 _atom_site_symmetry_multiplicity
 _atom_site_fract_x
 _atom_site_fract_y
 _atom_site_fract_z
 _atom_site_occupancy
  F  F0  1  0.25666666  0.20623273  0.68033595  1
  F  F1  1  0.24333334  0.79376727  0.18033595  1
  F  F2  1  0.74333334  0.70623273  0.31966405  1
  F  F3  1  0.75666666  0.29376727  0.81966405  1
  F  F4  1  0.74333334  0.79376727  0.31966405  1
  F  F5  1  0.75666666  0.20623273  0.81966405  1
  F  F6  1  0.25666666  0.29376727  0.68033595  1
  F  F7  1  0.24333334  0.70623273  0.18033595  1
  F  F8  1  0.39670796  0.65619071  0.49953236  1
  F  F9  1  0.10329204  0.34380929  0.99953236  1
  F  F10  1  0.60329204  0.15619071  0.50046764  1
  F  F11  1  0.89670796  0.84380929  0.00046764  1
  F  F12  1  0.60329204  0.34380929  0.50046764  1
  F  F13  1  0.89670796  0.65619071  0.00046764  1
  F  F14  1  0.39670796  0.84380929  0.49953236  1
  F  F15  1  0.10329204  0.15619071  0.99953236  1
  F  F16  1  0.39910253  0.28903124  0.80672232  1
  F  F17  1  0.10089747  0.71096876  0.30672232  1
  F  F18  1  0.60089747  0.78903124  0.19327768  1
  F  F19  1  0.89910253  0.21096876  0.69327768  1
  F  F20  1  0.60089747  0.71096876  0.19327768  1
  F  F21  1  0.89910253  0.28903124  0.69327768  1
  F  F22  1  0.39910253  0.21096876  0.80672232  1
  F  F23  1  0.10089747  0.78903124  0.30672232  1
  Li  Li24  1  0.01982221  0.30991946  0.79624613  1
  Li  Li25  1  0.48017779  -0.30991946  1.29624613  1
  Li  Li26  1  -0.01982221  0.80991946  -0.79624613  1
  Li  Li27  1  0.51982221  0.19008054  -0.29624613  1
  Li  Li28  1  -0.01982221  -0.30991946  -0.79624613  1
  Li  Li29  1  0.51982221  0.30991946  -0.29624613  1
  Li  Li30  1  0.01982221  0.19008054  0.79624613  1
  Li  Li31  1  0.48017779  0.80991946  1.29624613  1
  Li  Li32  1  0.00000000  0.00000000  0.50000000  1
  Li  Li33  1  0.50000000  0.00000000  0.00000000  1
  Li  Li34  1  0.00000000  0.50000000  0.50000000  1
  Li  Li35  1  0.50000000  0.50000000  0.00000000  1
  Li  Li36  1  0.52990769  0.11951427  0.15737950  1
  Li  Li37  1  0.97009231  0.88048573  0.65737950  1
  Li  Li38  1  0.47009231  0.61951427  0.84262050  1
  Li  Li39  1  0.02990769  0.38048573  0.34262050  1
  Li  Li40  1  0.47009231  0.88048573  0.84262050  1
  Li  Li41  1  0.02990769  0.11951427  0.34262050  1
  Li  Li42  1  0.52990769  0.38048573  0.15737950  1
  Li  Li43  1  0.97009231  0.61951427  0.65737950  1
  Li  Li44  1  0.96714424  0.25000000  0.59813960  1
  Li  Li45  1  0.53285576  0.75000000  0.09813960  1
  Li  Li46  1  0.03285576  0.75000000  0.40186040  1
  Li  Li47  1  0.46714424  0.25000000  0.90186040  1
