# generated using pymatgen
data_LiF
_symmetry_space_group_name_H-M   'P 1'
_cell_length_a   6.22216711
_cell_length_b   5.21522948
_cell_length_c   4.79396512
_cell_angle_alpha   90.00000000
_cell_angle_beta   90.00000000
_cell_angle_gamma   90.00000000
_symmetry_Int_Tables_number   1
_chemical_formula_structural   LiF
_chemical_formula_sum   'Li10 F10'
_cell_volume   155.56430891
_cell_formula_units_Z   10
loop_
 _symmetry_equiv_pos_site_id
 _symmetry_equiv_pos_as_xyz
  1  'x, y, z'
loop_
 _atom_site_type_symbol
 _atom_site_label
 _atom_site_symmetry_multiplicity
 _atom_site_fract_x
 _atom_site_fract_y
 _atom_site_fract_z
 _atom_site_occupancy
  F  F0  1  0.21563474  0.87676213  0.06068347  1
  F  F1  1  -0.21563474  -0.87676213  0.06068347  1
  F  F2  1  0.28436526  1.37676213  0.43931653  1
  F  F3  1  0.71563474  -0.37676213  0.43931653  1
  F  F4  1  -0.21563474  -0.87676213  -0.06068347  1
  F  F5  1  0.21563474  0.87676213  -0.06068347  1
  F  F6  1  0.71563474  -0.37676213  0.56068347  1
  F  F7  1  0.28436526  1.37676213  0.56068347  1
  F  F8  1  0.00000000  0.50000000  0.50000000  1
  F  F9  1  0.50000000  0.00000000  0.00000000  1
  Li  Li10  1  0.36267432  0.41137629  0.00000000  1
  Li  Li11  1  0.63732568  0.58862371  0.00000000  1
  Li  Li12  1  0.13732568  0.91137629  0.50000000  1
  Li  Li13  1  0.86267432  0.08862371  0.50000000  1
  Li  Li14  1  0.84447835  0.69155774  -0.00000000  1
  Li  Li15  1  0.15552165  0.30844226  0.00000000  1
  Li  Li16  1  0.65552165  0.19155774  0.50000000  1
  Li  Li17  1  0.34447835  0.80844226  0.50000000  1
  Li  Li18  1  0.00000000  0.50000000  0.00000000  1
  Li  Li19  1  0.50000000  0.00000000  0.50000000  1
