# generated using pymatgen
data_LiF
_symmetry_space_group_name_H-M   'P 1'
_cell_length_a   10.81179077
_cell_length_b   10.81179077
_cell_length_c   4.76944223
_cell_angle_alpha   90.00000000
_cell_angle_beta   90.00000000
_cell_angle_gamma   120.00000000
_symmetry_Int_Tables_number   1
_chemical_formula_structural   LiF
_chemical_formula_sum   'Li20 F20'
_cell_volume   482.82915843
_cell_formula_units_Z   20
loop_
 _symmetry_equiv_pos_site_id
 _symmetry_equiv_pos_as_xyz
  1  'x, y, z'
loop_
 _atom_site_type_symbol
 _atom_site_label
 _atom_site_symmetry_multiplicity
 _atom_site_fract_x
 _atom_site_fract_y
 _atom_site_fract_z
 _atom_site_occupancy
  F  F0  1  0.85441827  0.63606273  0.00000000  1
  F  F1  1  0.36393727  0.21835553  0.00000000  1
  F  F2  1  0.78164447  0.14558173  0.00000000  1
  F  F3  1  0.63606273  0.85441827  0.00000000  1
  F  F4  1  0.21835553  0.36393727  0.00000000  1
  F  F5  1  0.14558173  0.78164447  0.00000000  1
  F  F6  1  0.64067591  0.21735806  0.50000000  1
  F  F7  1  0.78264194  0.42331785  0.50000000  1
  F  F8  1  0.57668215  0.35932409  0.50000000  1
  F  F9  1  0.21735806  0.64067591  0.50000000  1
  F  F10  1  0.42331785  0.78264194  0.50000000  1
  F  F11  1  0.35932409  0.57668215  0.50000000  1
  F  F12  1  0.27123078  0.87693045  0.00000000  1
  F  F13  1  0.12306955  0.39430033  0.00000000  1
  F  F14  1  0.60569967  0.72876922  0.00000000  1
  F  F15  1  0.87693045  0.27123078  0.00000000  1
  F  F16  1  0.39430033  0.12306955  0.00000000  1
  F  F17  1  0.72876922  0.60569967  0.00000000  1
  F  F18  1  0.33333333  0.66666667  0.50000000  1
  F  F19  1  0.66666667  0.33333333  0.50000000  1
  Li  Li20  1  0.19413032  0.00000000  0.68973724  1
  Li  Li21  1  0.00000000  0.19413032  0.68973724  1
  Li  Li22  1  0.80586968  0.80586968  0.68973724  1
  Li  Li23  1  0.19413032  0.00000000  0.31026276  1
  Li  Li24  1  0.00000000  0.19413032  0.31026276  1
  Li  Li25  1  0.80586968  0.80586968  0.31026276  1
  Li  Li26  1  0.15125455  0.31861681  0.18502640  1
  Li  Li27  1  -0.31861681  -0.16736226  0.18502640  1
  Li  Li28  1  0.16736226  -0.15125455  0.18502640  1
  Li  Li29  1  0.15125455  0.31861681  -0.18502640  1
  Li  Li30  1  -0.31861681  -0.16736226  -0.18502640  1
  Li  Li31  1  0.16736226  -0.15125455  -0.18502640  1
  Li  Li32  1  0.31861681  0.15125455  -0.18502640  1
  Li  Li33  1  -0.16736226  -0.31861681  -0.18502640  1
  Li  Li34  1  -0.15125455  0.16736226  -0.18502640  1
  Li  Li35  1  0.31861681  0.15125455  0.18502640  1
  Li  Li36  1  -0.16736226  -0.31861681  0.18502640  1
  Li  Li37  1  -0.15125455  0.16736226  0.18502640  1
  Li  Li38  1  0.33333333  0.66666667  0.00000000  1
  Li  Li39  1  0.66666667  0.33333333  0.00000000  1
