# generated using pymatgen
data_LiF
_symmetry_space_group_name_H-M   'P 1'
_cell_length_a   3.90661821
_cell_length_b   3.90661821
_cell_length_c   20.35546499
_cell_angle_alpha   90.00000000
_cell_angle_beta   90.00000000
_cell_angle_gamma   90.00000000
_symmetry_Int_Tables_number   1
_chemical_formula_structural   LiF
_chemical_formula_sum   'Li12 F12'
_cell_volume   310.65830457
_cell_formula_units_Z   12
loop_
 _symmetry_equiv_pos_site_id
 _symmetry_equiv_pos_as_xyz
  1  'x, y, z'
loop_
 _atom_site_type_symbol
 _atom_site_label
 _atom_site_symmetry_multiplicity
 _atom_site_fract_x
 _atom_site_fract_y
 _atom_site_fract_z
 _atom_site_occupancy
  F  F0  1  0.31766328  0.00000000  0.00000000  1
  F  F1  1  0.68233672  0.00000000  0.00000000  1
  F  F2  1  0.00000000  0.31766328  0.00000000  1
  F  F3  1  0.00000000  0.68233672  0.00000000  1
  F  F4  1  0.72985081  0.72985081  0.00000000  1
  F  F5  1  0.27014919  0.27014919  0.00000000  1
  F  F6  1  0.27014919  0.72985081  0.00000000  1
  F  F7  1  0.72985081  0.27014919  -0.00000000  1
  F  F8  1  0.00000000  0.50000000  0.24804607  1
  F  F9  1  0.50000000  0.00000000  0.24804607  1
  F  F10  1  0.00000000  0.50000000  0.75195393  1
  F  F11  1  0.50000000  0.00000000  0.75195393  1
  Li  Li12  1  0.00000000  0.00000000  0.50000000  1
  Li  Li13  1  0.50000000  0.50000000  0.50000000  1
  Li  Li14  1  0.00000000  0.00000000  0.00000000  1
  Li  Li15  1  0.50000000  0.50000000  -0.00000000  1
  Li  Li16  1  0.00000000  0.50000000  0.50000000  1
  Li  Li17  1  0.50000000  0.00000000  0.50000000  1
  Li  Li18  1  0.00000000  0.00000000  0.29824295  1
  Li  Li19  1  0.00000000  0.00000000  0.70175705  1
  Li  Li20  1  0.00000000  0.50000000  0.85463518  1
  Li  Li21  1  0.50000000  0.00000000  0.85463518  1
  Li  Li22  1  0.00000000  0.50000000  -0.85463518  1
  Li  Li23  1  0.50000000  0.00000000  -0.85463518  1
