# generated using pymatgen
data_LiF
_symmetry_space_group_name_H-M   'P 1'
_cell_length_a   8.93566240
_cell_length_b   9.16056857
_cell_length_c   6.20543743
_cell_angle_alpha   90.00000000
_cell_angle_beta   90.00000000
_cell_angle_gamma   90.00000000
_symmetry_Int_Tables_number   1
_chemical_formula_structural   LiF
_chemical_formula_sum   'Li20 F20'
_cell_volume   507.95072376
_cell_formula_units_Z   20
loop_
 _symmetry_equiv_pos_site_id
 _symmetry_equiv_pos_as_xyz
  1  'x, y, z'
loop_
 _atom_site_type_symbol
 _atom_site_label
 _atom_site_symmetry_multiplicity
 _atom_site_fract_x
 _atom_site_fract_y
 _atom_site_fract_z
 _atom_site_occupancy
  F  F0  1  0.89794324  0.44148171  0.86920976  1
  F  F1  1  -0.89794324  -0.44148171  0.86920976  1
  F  F2  1  -0.39794324  0.94148171  -0.86920976  1
  F  F3  1  1.39794324  0.05851829  -0.86920976  1
  F  F4  1  -0.89794324  -0.44148171  -0.86920976  1
  F  F5  1  0.89794324  0.44148171  -0.86920976  1
  F  F6  1  1.39794324  0.05851829  0.86920976  1
  F  F7  1  -0.39794324  0.94148171  0.86920976  1
  F  F8  1  0.58442843  0.76745947  0.82492641  1
  F  F9  1  0.41557157  0.23254053  0.82492641  1
  F  F10  1  0.91557157  0.26745947  0.17507359  1
  F  F11  1  0.08442843  0.73254053  0.17507359  1
  F  F12  1  0.41557157  0.23254053  0.17507359  1
  F  F13  1  0.58442843  0.76745947  0.17507359  1
  F  F14  1  0.08442843  0.73254053  0.82492641  1
  F  F15  1  0.91557157  0.26745947  0.82492641  1
  F  F16  1  0.00000000  0.50000000  0.67984157  1
  F  F17  1  0.50000000  0.00000000  0.32015843  1
  F  F18  1  0.00000000  0.50000000  0.32015843  1
  F  F19  1  0.50000000  0.00000000  0.67984157  1
  Li  Li20  1  0.00000000  0.00000000  0.50000000  1
  Li  Li21  1  0.50000000  0.50000000  0.50000000  1
  Li  Li22  1  0.77471033  0.24434751  -0.00000000  1
  Li  Li23  1  0.22528967  0.75565249  0.00000000  1
  Li  Li24  1  0.72528967  0.74434751  0.00000000  1
  Li  Li25  1  0.27471033  0.25565249  0.00000000  1
  Li  Li26  1  0.00000000  0.00000000  0.00000000  1
  Li  Li27  1  0.50000000  0.50000000  0.00000000  1
  Li  Li28  1  0.97068619  0.30229265  0.50000000  1
  Li  Li29  1  0.02931381  0.69770735  0.50000000  1
  Li  Li30  1  0.52931381  0.80229265  0.50000000  1
  Li  Li31  1  0.47068619  0.19770735  0.50000000  1
  Li  Li32  1  0.92676257  0.66157227  0.76209280  1
  Li  Li33  1  0.07323743  0.33842773  0.76209280  1
  Li  Li34  1  0.57323743  0.16157227  0.23790720  1
  Li  Li35  1  0.42676257  0.83842773  0.23790720  1
  Li  Li36  1  0.07323743  0.33842773  0.23790720  1
  Li  Li37  1  0.92676257  0.66157227  0.23790720  1
  Li  Li38  1  0.42676257  0.83842773  0.76209280  1
  Li  Li39  1  0.57323743  0.16157227  0.76209280  1
