# generated using pymatgen
data_LiF
_symmetry_space_group_name_H-M   'P 1'
_cell_length_a   8.92499352
_cell_length_b   8.92499352
_cell_length_c   2.96829267
_cell_angle_alpha   90.00000000
_cell_angle_beta   90.00000000
_cell_angle_gamma   90.00000000
_symmetry_Int_Tables_number   1
_chemical_formula_structural   LiF
_chemical_formula_sum   'Li21 F21'
_cell_volume   236.44086454
_cell_formula_units_Z   21
loop_
 _symmetry_equiv_pos_site_id
 _symmetry_equiv_pos_as_xyz
  1  'x, y, z'
loop_
 _atom_site_type_symbol
 _atom_site_label
 _atom_site_symmetry_multiplicity
 _atom_site_fract_x
 _atom_site_fract_y
 _atom_site_fract_z
 _atom_site_occupancy
  F  F0  1  0.50000000  0.50000000  -0.00000000  1
  F  F1  1  0.30450025  0.30450025  0.50000000  1
  F  F2  1  0.69549975  0.69549975  0.50000000  1
  F  F3  1  0.69549975  0.30450025  0.50000000  1
  F  F4  1  0.30450025  0.69549975  0.50000000  1
  F  F5  1  0.09352039  0.27966762  0.64062232  1
  F  F6  1  -0.09352039  -0.27966762  0.64062232  1
  F  F7  1  -0.27966762  0.09352039  0.64062232  1
  F  F8  1  0.27966762  -0.09352039  0.64062232  1
  F  F9  1  -0.09352039  0.27966762  -0.64062232  1
  F  F10  1  0.09352039  -0.27966762  -0.64062232  1
  F  F11  1  0.27966762  0.09352039  -0.64062232  1
  F  F12  1  -0.27966762  -0.09352039  -0.64062232  1
  F  F13  1  -0.09352039  -0.27966762  -0.64062232  1
  F  F14  1  0.09352039  0.27966762  -0.64062232  1
  F  F15  1  0.27966762  -0.09352039  -0.64062232  1
  F  F16  1  -0.27966762  0.09352039  -0.64062232  1
  F  F17  1  0.09352039  -0.27966762  0.64062232  1
  F  F18  1  -0.09352039  0.27966762  0.64062232  1
  F  F19  1  -0.27966762  -0.09352039  0.64062232  1
  F  F20  1  0.27966762  0.09352039  0.64062232  1
  Li  Li21  1  0.50000000  0.50000000  0.50000000  1
  Li  Li22  1  0.75166067  0.50000000  0.00000000  1
  Li  Li23  1  0.24833933  0.50000000  -0.00000000  1
  Li  Li24  1  0.50000000  0.75166067  0.00000000  1
  Li  Li25  1  0.50000000  0.24833933  -0.00000000  1
  Li  Li26  1  0.65163803  0.50000000  0.50000000  1
  Li  Li27  1  0.34836197  0.50000000  0.50000000  1
  Li  Li28  1  0.50000000  0.65163803  0.50000000  1
  Li  Li29  1  0.50000000  0.34836197  0.50000000  1
  Li  Li30  1  0.00000000  0.50000000  -0.00000000  1
  Li  Li31  1  0.50000000  0.00000000  -0.00000000  1
  Li  Li32  1  0.00000000  0.00000000  0.00000000  1
  Li  Li33  1  0.78445678  0.78445678  -0.00000000  1
  Li  Li34  1  0.21554322  0.21554322  -0.00000000  1
  Li  Li35  1  0.21554322  0.78445678  -0.00000000  1
  Li  Li36  1  0.78445678  0.21554322  -0.00000000  1
  Li  Li37  1  0.00000000  0.00000000  0.50000000  1
  Li  Li38  1  0.59414935  0.59414935  -0.00000000  1
  Li  Li39  1  0.40585065  0.40585065  -0.00000000  1
  Li  Li40  1  0.40585065  0.59414935  0.00000000  1
  Li  Li41  1  0.59414935  0.40585065  0.00000000  1
