# generated using pymatgen
data_LiF
_symmetry_space_group_name_H-M   'P 1'
_cell_length_a   5.42471386
_cell_length_b   5.42471386
_cell_length_c   18.35004147
_cell_angle_alpha   90.00000000
_cell_angle_beta   90.00000000
_cell_angle_gamma   120.00000000
_symmetry_Int_Tables_number   1
_chemical_formula_structural   LiF
_chemical_formula_sum   'Li24 F24'
_cell_volume   467.65044570
_cell_formula_units_Z   24
loop_
 _symmetry_equiv_pos_site_id
 _symmetry_equiv_pos_as_xyz
  1  'x, y, z'
loop_
 _atom_site_type_symbol
 _atom_site_label
 _atom_site_symmetry_multiplicity
 _atom_site_fract_x
 _atom_site_fract_y
 _atom_site_fract_z
 _atom_site_occupancy
  F  F0  1  0.00000000  0.00000000  0.64867922  1
  F  F1  1  0.00000000  0.00000000  0.35132078  1
  F  F2  1  0.66666667  0.33333333  0.32135775  1
  F  F3  1  0.66666667  0.33333333  0.67864225  1
  F  F4  1  0.00000000  0.00000000  0.00000000  1
  F  F5  1  0.90546651  0.09453349  0.00000000  1
  F  F6  1  0.90546651  0.81093302  -0.00000000  1
  F  F7  1  0.18906698  0.09453349  0.00000000  1
  F  F8  1  0.33333333  0.66666667  0.00000000  1
  F  F9  1  0.72869523  0.02648748  0.70385635  1
  F  F10  1  0.97351252  0.70220775  0.70385635  1
  F  F11  1  0.29779225  0.27130477  0.70385635  1
  F  F12  1  0.97351252  0.27130477  0.29614365  1
  F  F13  1  0.29779225  0.02648748  0.29614365  1
  F  F14  1  0.72869523  0.70220775  0.29614365  1
  F  F15  1  0.66666667  0.33333333  0.00000000  1
  F  F16  1  0.43625141  0.62700328  0.42963281  1
  F  F17  1  0.37299672  0.80924813  0.42963281  1
  F  F18  1  0.19075187  0.56374859  0.42963281  1
  F  F19  1  0.37299672  0.56374859  0.57036719  1
  F  F20  1  0.19075187  0.62700328  0.57036719  1
  F  F21  1  0.43625141  0.80924813  0.57036719  1
  F  F22  1  0.66666667  0.33333333  0.96411827  1
  F  F23  1  0.66666667  0.33333333  0.03588173  1
  Li  Li24  1  0.91671925  0.65123431  0.45811781  1
  Li  Li25  1  -0.65123431  0.26548495  0.45811781  1
  Li  Li26  1  -0.26548495  -0.91671925  0.45811781  1
  Li  Li27  1  -0.65123431  -0.91671925  -0.45811781  1
  Li  Li28  1  -0.26548495  0.65123431  -0.45811781  1
  Li  Li29  1  0.91671925  0.26548495  -0.45811781  1
  Li  Li30  1  0.44254359  0.27615271  0.20833259  1
  Li  Li31  1  0.72384729  0.16639089  0.20833259  1
  Li  Li32  1  0.83360911  0.55745641  0.20833259  1
  Li  Li33  1  0.72384729  0.55745641  0.79166741  1
  Li  Li34  1  0.83360911  0.27615271  0.79166741  1
  Li  Li35  1  0.44254359  0.16639089  0.79166741  1
  Li  Li36  1  0.33333333  0.66666667  0.30333993  1
  Li  Li37  1  0.33333333  0.66666667  0.69666007  1
  Li  Li38  1  0.60688838  0.95212456  0.89351618  1
  Li  Li39  1  0.04787544  0.65476382  0.89351618  1
  Li  Li40  1  0.34523618  0.39311162  0.89351618  1
  Li  Li41  1  0.04787544  0.39311162  0.10648382  1
  Li  Li42  1  0.34523618  0.95212456  0.10648382  1
  Li  Li43  1  0.60688838  0.65476382  0.10648382  1
  Li  Li44  1  0.33333333  0.66666667  0.50000000  1
  Li  Li45  1  0.66666667  0.33333333  0.50000000  1
  Li  Li46  1  0.33333333  0.66666667  0.90895185  1
  Li  Li47  1  0.33333333  0.66666667  0.09104815  1
