# generated using pymatgen
data_LiF
_symmetry_space_group_name_H-M   'P 1'
_cell_length_a   10.35647236
_cell_length_b   14.24004403
_cell_length_c   3.66945455
_cell_angle_alpha   90.00000000
_cell_angle_beta   90.00000000
_cell_angle_gamma   90.00000000
_symmetry_Int_Tables_number   1
_chemical_formula_structural   LiF
_chemical_formula_sum   'Li24 F24'
_cell_volume   541.15876270
_cell_formula_units_Z   24
loop_
 _symmetry_equiv_pos_site_id
 _symmetry_equiv_pos_as_xyz
  1  'x, y, z'
loop_
 _atom_site_type_symbol
 _atom_site_label
 _atom_site_symmetry_multiplicity
 _atom_site_fract_x
 _atom_site_fract_y
 _atom_site_fract_z
 _atom_site_occupancy
  F  F0  1  0.30489174  0.12162672  0.50000000  1
  F  F1  1  0.69510826  0.87837328  0.50000000  1
  F  F2  1  0.19510826  0.62162672  0.50000000  1
  F  F3  1  0.80489174  0.37837328  0.50000000  1
  F  F4  1  0.38697089  0.65986637  0.35145884  1
  F  F5  1  0.61302911  0.34013363  0.35145884  1
  F  F6  1  0.11302911  0.15986637  0.64854116  1
  F  F7  1  0.88697089  0.84013363  0.64854116  1
  F  F8  1  0.61302911  0.34013363  0.64854116  1
  F  F9  1  0.38697089  0.65986637  0.64854116  1
  F  F10  1  0.88697089  0.84013363  0.35145884  1
  F  F11  1  0.11302911  0.15986637  0.35145884  1
  F  F12  1  0.56290991  0.73704131  0.77858596  1
  F  F13  1  0.43709009  0.26295869  0.77858596  1
  F  F14  1  0.93709009  0.23704131  0.22141404  1
  F  F15  1  0.06290991  0.76295869  0.22141404  1
  F  F16  1  0.43709009  0.26295869  0.22141404  1
  F  F17  1  0.56290991  0.73704131  0.22141404  1
  F  F18  1  0.06290991  0.76295869  0.77858596  1
  F  F19  1  0.93709009  0.23704131  0.77858596  1
  F  F20  1  0.00961357  0.23331898  0.00000000  1
  F  F21  1  0.99038643  0.76668102  0.00000000  1
  F  F22  1  0.49038643  0.73331898  0.00000000  1
  F  F23  1  0.50961357  0.26668102  0.00000000  1
  Li  Li24  1  0.11469143  0.57892947  0.00000000  1
  Li  Li25  1  0.88530857  0.42107053  -0.00000000  1
  Li  Li26  1  0.38530857  0.07892947  0.00000000  1
  Li  Li27  1  0.61469143  0.92107053  0.00000000  1
  Li  Li28  1  0.68937765  0.43447639  0.17653805  1
  Li  Li29  1  -0.68937765  -0.43447639  0.17653805  1
  Li  Li30  1  -0.18937765  0.93447639  -0.17653805  1
  Li  Li31  1  1.18937765  0.06552361  -0.17653805  1
  Li  Li32  1  -0.68937765  -0.43447639  -0.17653805  1
  Li  Li33  1  0.68937765  0.43447639  -0.17653805  1
  Li  Li34  1  1.18937765  0.06552361  0.17653805  1
  Li  Li35  1  -0.18937765  0.93447639  0.17653805  1
  Li  Li36  1  0.56645184  0.33607214  0.00000000  1
  Li  Li37  1  0.43354816  0.66392786  0.00000000  1
  Li  Li38  1  0.93354816  0.83607214  0.00000000  1
  Li  Li39  1  0.06645184  0.16392786  0.00000000  1
  Li  Li40  1  0.78811393  0.23406451  0.00000000  1
  Li  Li41  1  0.21188607  0.76593549  0.00000000  1
  Li  Li42  1  0.71188607  0.73406451  0.00000000  1
  Li  Li43  1  0.28811393  0.26593549  0.00000000  1
  Li  Li44  1  0.00000000  0.00000000  0.50000000  1
  Li  Li45  1  0.50000000  0.50000000  0.50000000  1
  Li  Li46  1  0.00000000  0.00000000  0.00000000  1
  Li  Li47  1  0.50000000  0.50000000  0.00000000  1
