# generated using pymatgen
data_LiF
_symmetry_space_group_name_H-M   'P 1'
_cell_length_a   7.86136771
_cell_length_b   7.86136771
_cell_length_c   22.70283442
_cell_angle_alpha   90.00000000
_cell_angle_beta   90.00000000
_cell_angle_gamma   90.00000000
_symmetry_Int_Tables_number   1
_chemical_formula_structural   LiF
_chemical_formula_sum   'Li49 F49'
_cell_volume   1403.06019173
_cell_formula_units_Z   49
loop_
 _symmetry_equiv_pos_site_id
 _symmetry_equiv_pos_as_xyz
  1  'x, y, z'
loop_
 _atom_site_type_symbol
 _atom_site_label
 _atom_site_symmetry_multiplicity
 _atom_site_fract_x
 _atom_site_fract_y
 _atom_site_fract_z
 _atom_site_occupancy
  F  F0  1  0.12993650  0.29802787  0.52568385  1
  F  F1  1  -0.12993650  -0.29802787  0.52568385  1
  F  F2  1  -0.29802787  0.12993650  0.52568385  1
  F  F3  1  0.29802787  -0.12993650  0.52568385  1
  F  F4  1  -0.12993650  0.29802787  -0.52568385  1
  F  F5  1  0.12993650  -0.29802787  -0.52568385  1
  F  F6  1  0.29802787  0.12993650  -0.52568385  1
  F  F7  1  -0.29802787  -0.12993650  -0.52568385  1
  F  F8  1  -0.12993650  -0.29802787  -0.52568385  1
  F  F9  1  0.12993650  0.29802787  -0.52568385  1
  F  F10  1  0.29802787  -0.12993650  -0.52568385  1
  F  F11  1  -0.29802787  0.12993650  -0.52568385  1
  F  F12  1  0.12993650  -0.29802787  0.52568385  1
  F  F13  1  -0.12993650  0.29802787  0.52568385  1
  F  F14  1  -0.29802787  -0.12993650  0.52568385  1
  F  F15  1  0.29802787  0.12993650  0.52568385  1
  F  F16  1  0.61311541  0.90895628  0.38712495  1
  F  F17  1  0.38688459  0.09104372  0.38712495  1
  F  F18  1  0.09104372  0.61311541  0.38712495  1
  F  F19  1  0.90895628  0.38688459  0.38712495  1
  F  F20  1  0.38688459  0.90895628  0.61287505  1
  F  F21  1  0.61311541  0.09104372  0.61287505  1
  F  F22  1  0.90895628  0.61311541  0.61287505  1
  F  F23  1  0.09104372  0.38688459  0.61287505  1
  F  F24  1  0.38688459  0.09104372  0.61287505  1
  F  F25  1  0.61311541  0.90895628  0.61287505  1
  F  F26  1  0.90895628  0.38688459  0.61287505  1
  F  F27  1  0.09104372  0.61311541  0.61287505  1
  F  F28  1  0.61311541  0.09104372  0.38712495  1
  F  F29  1  0.38688459  0.90895628  0.38712495  1
  F  F30  1  0.09104372  0.38688459  0.38712495  1
  F  F31  1  0.90895628  0.61311541  0.38712495  1
  F  F32  1  0.00000000  0.50000000  0.91622605  1
  F  F33  1  0.50000000  0.00000000  0.91622605  1
  F  F34  1  0.00000000  0.50000000  0.08377395  1
  F  F35  1  0.50000000  0.00000000  0.08377395  1
  F  F36  1  0.88577186  0.50000000  0.89367176  1
  F  F37  1  0.11422814  0.50000000  0.89367176  1
  F  F38  1  0.50000000  0.88577186  0.89367176  1
  F  F39  1  0.50000000  0.11422814  0.89367176  1
  F  F40  1  0.11422814  0.50000000  0.10632824  1
  F  F41  1  0.88577186  0.50000000  0.10632824  1
  F  F42  1  0.50000000  0.88577186  0.10632824  1
  F  F43  1  0.50000000  0.11422814  0.10632824  1
  F  F44  1  0.57681980  0.50000000  -0.00000000  1
  F  F45  1  0.42318020  0.50000000  -0.00000000  1
  F  F46  1  0.50000000  0.57681980  0.00000000  1
  F  F47  1  0.50000000  0.42318020  -0.00000000  1
  F  F48  1  0.50000000  0.50000000  -0.00000000  1
  Li  Li49  1  0.23626712  0.23626712  0.81938095  1
  Li  Li50  1  0.76373288  0.76373288  0.81938095  1
  Li  Li51  1  0.76373288  0.23626712  0.81938095  1
  Li  Li52  1  0.23626712  0.76373288  0.81938095  1
  Li  Li53  1  0.76373288  0.23626712  0.18061905  1
  Li  Li54  1  0.23626712  0.76373288  0.18061905  1
  Li  Li55  1  0.23626712  0.23626712  0.18061905  1
  Li  Li56  1  0.76373288  0.76373288  0.18061905  1
  Li  Li57  1  0.50000000  0.50000000  0.37440380  1
  Li  Li58  1  0.50000000  0.50000000  0.62559620  1
  Li  Li59  1  0.68771057  0.50000000  0.69979818  1
  Li  Li60  1  0.31228943  0.50000000  0.69979818  1
  Li  Li61  1  0.50000000  0.68771057  0.69979818  1
  Li  Li62  1  0.50000000  0.31228943  0.69979818  1
  Li  Li63  1  0.31228943  0.50000000  0.30020182  1
  Li  Li64  1  0.68771057  0.50000000  0.30020182  1
  Li  Li65  1  0.50000000  0.68771057  0.30020182  1
  Li  Li66  1  0.50000000  0.31228943  0.30020182  1
  Li  Li67  1  0.79624141  -0.00000000  0.07708494  1
  Li  Li68  1  0.20375859  -0.00000000  0.07708494  1
  Li  Li69  1  0.00000000  0.79624141  0.07708494  1
  Li  Li70  1  0.00000000  0.20375859  0.07708494  1
  Li  Li71  1  0.20375859  -0.00000000  0.92291506  1
  Li  Li72  1  0.79624141  -0.00000000  0.92291506  1
  Li  Li73  1  0.00000000  0.79624141  0.92291506  1
  Li  Li74  1  0.00000000  0.20375859  0.92291506  1
  Li  Li75  1  0.17156672  0.00000000  0.46517911  1
  Li  Li76  1  0.82843328  -0.00000000  0.46517911  1
  Li  Li77  1  0.00000000  0.17156672  0.46517911  1
  Li  Li78  1  0.00000000  0.82843328  0.46517911  1
  Li  Li79  1  0.82843328  -0.00000000  0.53482089  1
  Li  Li80  1  0.17156672  0.00000000  0.53482089  1
  Li  Li81  1  0.00000000  0.17156672  0.53482089  1
  Li  Li82  1  0.00000000  0.82843328  0.53482089  1
  Li  Li83  1  0.00000000  0.50000000  0.00000000  1
  Li  Li84  1  0.50000000  0.00000000  0.00000000  1
  Li  Li85  1  0.17233360  0.17233360  0.90139172  1
  Li  Li86  1  0.82766640  0.82766640  0.90139172  1
  Li  Li87  1  0.82766640  0.17233360  0.90139172  1
  Li  Li88  1  0.17233360  0.82766640  0.90139172  1
  Li  Li89  1  0.82766640  0.17233360  0.09860828  1
  Li  Li90  1  0.17233360  0.82766640  0.09860828  1
  Li  Li91  1  0.17233360  0.17233360  0.09860828  1
  Li  Li92  1  0.82766640  0.82766640  0.09860828  1
  Li  Li93  1  0.73311684  -0.00000000  -0.00000000  1
  Li  Li94  1  0.26688316  0.00000000  0.00000000  1
  Li  Li95  1  0.00000000  0.73311684  -0.00000000  1
  Li  Li96  1  0.00000000  0.26688316  0.00000000  1
  Li  Li97  1  0.00000000  0.00000000  0.00000000  1
