# generated using pymatgen
data_LiF
_symmetry_space_group_name_H-M   'P 1'
_cell_length_a   14.05692026
_cell_length_b   14.05692026
_cell_length_c   8.23672841
_cell_angle_alpha   90.00000000
_cell_angle_beta   90.00000000
_cell_angle_gamma   120.00000000
_symmetry_Int_Tables_number   1
_chemical_formula_structural   LiF
_chemical_formula_sum   'Li66 F66'
_cell_volume   1409.50214420
_cell_formula_units_Z   66
loop_
 _symmetry_equiv_pos_site_id
 _symmetry_equiv_pos_as_xyz
  1  'x, y, z'
loop_
 _atom_site_type_symbol
 _atom_site_label
 _atom_site_symmetry_multiplicity
 _atom_site_fract_x
 _atom_site_fract_y
 _atom_site_fract_z
 _atom_site_occupancy
  F  F0  1  0.48625497  0.06378872  0.48286223  1
  F  F1  1  0.93621128  0.42246625  0.48286223  1
  F  F2  1  0.57753375  0.51374503  0.48286223  1
  F  F3  1  0.06378872  0.48625497  0.01713777  1
  F  F4  1  0.42246625  0.93621128  0.01713777  1
  F  F5  1  0.51374503  0.57753375  0.01713777  1
  F  F6  1  0.51374503  0.93621128  0.51713777  1
  F  F7  1  0.06378872  0.57753375  0.51713777  1
  F  F8  1  0.42246625  0.48625497  0.51713777  1
  F  F9  1  0.93621128  0.51374503  0.98286223  1
  F  F10  1  0.57753375  0.06378872  0.98286223  1
  F  F11  1  0.48625497  0.42246625  0.98286223  1
  F  F12  1  0.15292164  0.39712206  0.81619557  1
  F  F13  1  0.60287794  0.75579958  0.81619557  1
  F  F14  1  0.24420042  0.84707836  0.81619557  1
  F  F15  1  0.73045539  0.81958831  0.35047110  1
  F  F16  1  0.08913292  0.26954461  0.35047110  1
  F  F17  1  0.18041169  0.91086708  0.35047110  1
  F  F18  1  0.18041169  0.26954461  0.85047110  1
  F  F19  1  0.73045539  0.91086708  0.85047110  1
  F  F20  1  0.08913292  0.81958831  0.85047110  1
  F  F21  1  0.60287794  0.84707836  0.31619557  1
  F  F22  1  0.24420042  0.39712206  0.31619557  1
  F  F23  1  0.15292164  0.75579958  0.31619557  1
  F  F24  1  0.81958831  0.73045539  0.14952890  1
  F  F25  1  0.26954461  0.08913292  0.14952890  1
  F  F26  1  0.91086708  0.18041169  0.14952890  1
  F  F27  1  0.39712206  0.15292164  0.68380443  1
  F  F28  1  0.75579958  0.60287794  0.68380443  1
  F  F29  1  0.84707836  0.24420042  0.68380443  1
  F  F30  1  0.84707836  0.60287794  0.18380443  1
  F  F31  1  0.39712206  0.24420042  0.18380443  1
  F  F32  1  0.75579958  0.15292164  0.18380443  1
  F  F33  1  0.26954461  0.18041169  0.64952890  1
  F  F34  1  0.91086708  0.73045539  0.64952890  1
  F  F35  1  0.81958831  0.08913292  0.64952890  1
  F  F36  1  0.14338259  -0.00000000  0.25000000  1
  F  F37  1  0.00000000  0.14338259  0.25000000  1
  F  F38  1  0.85661741  0.85661741  0.25000000  1
  F  F39  1  0.85661741  -0.00000000  0.75000000  1
  F  F40  1  0.00000000  0.85661741  0.75000000  1
  F  F41  1  0.14338259  0.14338259  0.75000000  1
  F  F42  1  0.81004926  0.33333333  0.58333333  1
  F  F43  1  0.66666667  0.47671593  0.58333333  1
  F  F44  1  0.52328407  0.18995074  0.58333333  1
  F  F45  1  0.52328407  0.33333333  0.08333333  1
  F  F46  1  0.66666667  0.18995074  0.08333333  1
  F  F47  1  0.81004926  0.47671593  0.08333333  1
  F  F48  1  0.47671593  0.66666667  0.91666667  1
  F  F49  1  0.33333333  0.81004926  0.91666667  1
  F  F50  1  0.18995074  0.52328407  0.91666667  1
  F  F51  1  0.18995074  0.66666667  0.41666667  1
  F  F52  1  0.33333333  0.52328407  0.41666667  1
  F  F53  1  0.47671593  0.81004926  0.41666667  1
  F  F54  1  0.00000000  0.00000000  0.86803171  1
  F  F55  1  0.00000000  0.00000000  0.63196829  1
  F  F56  1  0.00000000  0.00000000  0.13196829  1
  F  F57  1  0.00000000  0.00000000  0.36803171  1
  F  F58  1  0.66666667  0.33333333  0.20136504  1
  F  F59  1  0.66666667  0.33333333  0.96530163  1
  F  F60  1  0.66666667  0.33333333  0.46530163  1
  F  F61  1  0.66666667  0.33333333  0.70136504  1
  F  F62  1  0.33333333  0.66666667  0.53469837  1
  F  F63  1  0.33333333  0.66666667  0.29863496  1
  F  F64  1  0.33333333  0.66666667  0.79863496  1
  F  F65  1  0.33333333  0.66666667  0.03469837  1
  Li  Li66  1  0.25049438  0.12907255  0.45910316  1
  Li  Li67  1  -0.12907255  0.12142183  0.45910316  1
  Li  Li68  1  -0.12142183  -0.25049438  0.45910316  1
  Li  Li69  1  0.12907255  0.25049438  0.04089684  1
  Li  Li70  1  0.12142183  -0.12907255  0.04089684  1
  Li  Li71  1  -0.25049438  -0.12142183  0.04089684  1
  Li  Li72  1  -0.25049438  -0.12907255  -0.45910316  1
  Li  Li73  1  0.12907255  -0.12142183  -0.45910316  1
  Li  Li74  1  0.12142183  0.25049438  -0.45910316  1
  Li  Li75  1  -0.12907255  -0.25049438  0.95910316  1
  Li  Li76  1  -0.12142183  0.12907255  0.95910316  1
  Li  Li77  1  0.25049438  0.12142183  0.95910316  1
  Li  Li78  1  0.91716104  0.46240588  0.79243649  1
  Li  Li79  1  0.53759412  0.45475516  0.79243649  1
  Li  Li80  1  0.54524484  0.08283896  0.79243649  1
  Li  Li81  1  0.79573922  0.58382771  0.37423017  1
  Li  Li82  1  0.78808849  0.20426078  0.37423017  1
  Li  Li83  1  0.41617229  0.21191151  0.37423017  1
  Li  Li84  1  0.41617229  0.20426078  -0.12576983  1
  Li  Li85  1  0.79573922  0.21191151  -0.12576983  1
  Li  Li86  1  0.78808849  0.58382771  -0.12576983  1
  Li  Li87  1  0.53759412  0.08283896  1.29243649  1
  Li  Li88  1  0.54524484  0.46240588  1.29243649  1
  Li  Li89  1  0.91716104  0.45475516  1.29243649  1
  Li  Li90  1  0.58382771  0.79573922  1.12576983  1
  Li  Li91  1  0.20426078  0.78808849  1.12576983  1
  Li  Li92  1  0.21191151  0.41617229  1.12576983  1
  Li  Li93  1  0.46240588  0.91716104  0.70756351  1
  Li  Li94  1  0.45475516  0.53759412  0.70756351  1
  Li  Li95  1  0.08283896  0.54524484  0.70756351  1
  Li  Li96  1  0.08283896  0.53759412  0.20756351  1
  Li  Li97  1  0.46240588  0.54524484  0.20756351  1
  Li  Li98  1  0.45475516  0.91716104  0.20756351  1
  Li  Li99  1  0.20426078  0.41617229  1.62576983  1
  Li  Li100  1  0.21191151  0.79573922  1.62576983  1
  Li  Li101  1  0.58382771  0.78808849  1.62576983  1
  Li  Li102  1  0.60569877  -0.00000000  0.25000000  1
  Li  Li103  1  0.00000000  0.60569877  0.25000000  1
  Li  Li104  1  0.39430123  0.39430123  0.25000000  1
  Li  Li105  1  0.39430123  -0.00000000  0.75000000  1
  Li  Li106  1  0.00000000  0.39430123  0.75000000  1
  Li  Li107  1  0.60569877  0.60569877  0.75000000  1
  Li  Li108  1  0.27236544  0.33333333  0.58333333  1
  Li  Li109  1  0.66666667  0.93903211  0.58333333  1
  Li  Li110  1  0.06096789  0.72763456  0.58333333  1
  Li  Li111  1  0.06096789  0.33333333  0.08333333  1
  Li  Li112  1  0.66666667  0.72763456  0.08333333  1
  Li  Li113  1  0.27236544  0.93903211  0.08333333  1
  Li  Li114  1  0.93903211  0.66666667  0.91666667  1
  Li  Li115  1  0.33333333  0.27236544  0.91666667  1
  Li  Li116  1  0.72763456  0.06096789  0.91666667  1
  Li  Li117  1  0.72763456  0.66666667  0.41666667  1
  Li  Li118  1  0.33333333  0.06096789  0.41666667  1
  Li  Li119  1  0.93903211  0.27236544  0.41666667  1
  Li  Li120  1  0.00000000  0.00000000  0.25000000  1
  Li  Li121  1  0.00000000  0.00000000  0.75000000  1
  Li  Li122  1  0.66666667  0.33333333  0.58333333  1
  Li  Li123  1  0.66666667  0.33333333  0.08333333  1
  Li  Li124  1  0.33333333  0.66666667  0.91666667  1
  Li  Li125  1  0.33333333  0.66666667  0.41666667  1
  Li  Li126  1  0.00000000  0.00000000  0.00000000  1
  Li  Li127  1  0.00000000  0.00000000  0.50000000  1
  Li  Li128  1  0.66666667  0.33333333  0.33333333  1
  Li  Li129  1  0.66666667  0.33333333  0.83333333  1
  Li  Li130  1  0.33333333  0.66666667  0.66666667  1
  Li  Li131  1  0.33333333  0.66666667  0.16666667  1
