# generated using pymatgen
data_Li3Y2Sb2(PSe)2
_symmetry_space_group_name_H-M   'P 1'
_cell_length_a   5.02722834
_cell_length_b   5.13006926
_cell_length_c   7.06331077
_cell_angle_alpha   94.65002876
_cell_angle_beta   100.12679591
_cell_angle_gamma   108.67731740
_symmetry_Int_Tables_number   1
_chemical_formula_structural   Li3Y2Sb2(PSe)2
_chemical_formula_sum   'Li3 Y2 Sb2 P2 Se2'
_cell_volume   168.02803567
_cell_formula_units_Z   1
loop_
 _symmetry_equiv_pos_site_id
 _symmetry_equiv_pos_as_xyz
  1  'x, y, z'
loop_
 _atom_site_type_symbol
 _atom_site_label
 _atom_site_symmetry_multiplicity
 _atom_site_fract_x
 _atom_site_fract_y
 _atom_site_fract_z
 _atom_site_occupancy
  Y  Y0  1  0.00000000  0.00000000  0.00000000  1
  Y  Y1  1  0.50000000  0.50000000  0.50000000  1
  P  P2  1  0.25000000  0.25000000  0.25000000  1
  P  P3  1  0.75000000  0.25000000  0.00000000  1
  Se  Se4  1  0.25000000  0.75000000  0.50000000  1
  Se  Se5  1  0.96379551  0.66276770  0.92517173  1
  Li  Li6  1  0.43054558  0.43652699  0.17698946  1
  Li  Li7  1  0.48994828  0.54384866  0.90891174  1
  Li  Li8  1  0.25318870  0.31932740  0.14974620  1
  Sb  Sb9  1  0.60414145  0.51835153  0.61379760  1
  Sb  Sb10  1  0.56081624  0.39544417  0.90561921  1
