# generated using pymatgen
data_LiF
_symmetry_space_group_name_H-M   'P 1'
_cell_length_a   6.95423146
_cell_length_b   6.36974963
_cell_length_c   7.76612614
_cell_angle_alpha   90.00000000
_cell_angle_beta   90.00000000
_cell_angle_gamma   90.00000000
_symmetry_Int_Tables_number   1
_chemical_formula_structural   LiF
_chemical_formula_sum   'Li10 F10'
_cell_volume   344.01386330
_cell_formula_units_Z   10
loop_
 _symmetry_equiv_pos_site_id
 _symmetry_equiv_pos_as_xyz
  1  'x, y, z'
loop_
 _atom_site_type_symbol
 _atom_site_label
 _atom_site_symmetry_multiplicity
 _atom_site_fract_x
 _atom_site_fract_y
 _atom_site_fract_z
 _atom_site_occupancy
  F  F0  1  0.27283564  0.59968360  0.22941471  1
  F  F1  1  -0.27283564  -0.59968360  0.22941471  1
  F  F2  1  0.22716436  1.09968360  -0.22941471  1
  F  F3  1  0.77283564  -0.09968360  -0.22941471  1
  F  F4  1  -0.27283564  -0.59968360  -0.22941471  1
  F  F5  1  0.27283564  0.59968360  -0.22941471  1
  F  F6  1  0.77283564  -0.09968360  0.22941471  1
  F  F7  1  0.22716436  1.09968360  0.22941471  1
  F  F8  1  0.00000000  0.00000000  0.50000000  1
  F  F9  1  0.50000000  0.50000000  0.50000000  1
  Li  Li10  1  0.00000000  0.50000000  0.50000000  1
  Li  Li11  1  0.50000000  0.00000000  0.50000000  1
  Li  Li12  1  0.00000000  0.00000000  0.72349043  1
  Li  Li13  1  0.50000000  0.50000000  0.27650957  1
  Li  Li14  1  0.00000000  0.00000000  0.27650957  1
  Li  Li15  1  0.50000000  0.50000000  0.72349043  1
  Li  Li16  1  0.80581391  0.21985652  0.00000000  1
  Li  Li17  1  0.19418609  0.78014348  0.00000000  1
  Li  Li18  1  0.69418609  0.71985652  0.00000000  1
  Li  Li19  1  0.30581391  0.28014348  0.00000000  1
