# generated using pymatgen
data_Li4TeF2
_symmetry_space_group_name_H-M   'P 1'
_cell_length_a   11.74835008
_cell_length_b   11.74835008
_cell_length_c   14.00304349
_cell_angle_alpha   90.00000000
_cell_angle_beta   90.00000000
_cell_angle_gamma   120.00000000
_symmetry_Int_Tables_number   1
_chemical_formula_structural   Li4TeF2
_chemical_formula_sum   'Li96 Te24 F48'
_cell_volume   1673.81258145
_cell_formula_units_Z   24
loop_
 _symmetry_equiv_pos_site_id
 _symmetry_equiv_pos_as_xyz
  1  'x, y, z'
loop_
 _atom_site_type_symbol
 _atom_site_label
 _atom_site_symmetry_multiplicity
 _atom_site_fract_x
 _atom_site_fract_y
 _atom_site_fract_z
 _atom_site_occupancy
  F  F0  1  0.30688267  0.84132045  0.29100661  1
  F  F1  1  -0.84132045  -0.53443778  0.29100661  1
  F  F2  1  0.53443778  -0.30688267  0.29100661  1
  F  F3  1  0.84132045  0.30688267  0.20899339  1
  F  F4  1  -0.53443778  -0.84132045  0.20899339  1
  F  F5  1  -0.30688267  0.53443778  0.20899339  1
  F  F6  1  -0.30688267  -0.84132045  -0.29100661  1
  F  F7  1  0.84132045  0.53443778  -0.29100661  1
  F  F8  1  -0.53443778  0.30688267  -0.29100661  1
  F  F9  1  -0.84132045  -0.30688267  0.79100661  1
  F  F10  1  0.53443778  0.84132045  0.79100661  1
  F  F11  1  0.30688267  -0.53443778  0.79100661  1
  F  F12  1  0.97354933  1.17465379  0.62433994  1
  F  F13  1  -0.17465379  -0.20110445  0.62433994  1
  F  F14  1  1.20110445  0.02645067  0.62433994  1
  F  F15  1  1.50798712  0.64021600  0.54232673  1
  F  F16  1  0.13222888  -0.50798712  0.54232673  1
  F  F17  1  0.35978400  0.86777112  0.54232673  1
  F  F18  1  0.35978400  -0.50798712  0.04232673  1
  F  F19  1  1.50798712  0.86777112  0.04232673  1
  F  F20  1  0.13222888  0.64021600  0.04232673  1
  F  F21  1  -0.17465379  0.02645067  1.12433994  1
  F  F22  1  1.20110445  1.17465379  1.12433994  1
  F  F23  1  0.97354933  -0.20110445  1.12433994  1
  F  F24  1  0.64021600  1.50798712  0.95767327  1
  F  F25  1  -0.50798712  0.13222888  0.95767327  1
  F  F26  1  0.86777112  0.35978400  0.95767327  1
  F  F27  1  1.17465379  0.97354933  0.87566006  1
  F  F28  1  -0.20110445  -0.17465379  0.87566006  1
  F  F29  1  0.02645067  1.20110445  0.87566006  1
  F  F30  1  0.02645067  -0.17465379  0.37566006  1
  F  F31  1  1.17465379  1.20110445  0.37566006  1
  F  F32  1  -0.20110445  0.97354933  0.37566006  1
  F  F33  1  -0.50798712  0.35978400  1.45767327  1
  F  F34  1  0.86777112  1.50798712  1.45767327  1
  F  F35  1  0.64021600  0.13222888  1.45767327  1
  F  F36  1  0.00000000  0.00000000  0.93326813  1
  F  F37  1  0.00000000  0.00000000  0.56673187  1
  F  F38  1  0.00000000  0.00000000  0.06673187  1
  F  F39  1  0.00000000  0.00000000  0.43326813  1
  F  F40  1  0.66666667  0.33333333  0.26660146  1
  F  F41  1  0.66666667  0.33333333  0.90006520  1
  F  F42  1  0.66666667  0.33333333  0.40006520  1
  F  F43  1  0.66666667  0.33333333  0.76660146  1
  F  F44  1  0.33333333  0.66666667  0.59993480  1
  F  F45  1  0.33333333  0.66666667  0.23339854  1
  F  F46  1  0.33333333  0.66666667  0.73339854  1
  F  F47  1  0.33333333  0.66666667  0.09993480  1
  Li  Li48  1  0.90820847  0.77490940  0.85512775  1
  Li  Li49  1  0.22509060  0.13329907  0.85512775  1
  Li  Li50  1  0.86670093  0.09179153  0.85512775  1
  Li  Li51  1  0.77490940  0.90820847  0.64487225  1
  Li  Li52  1  0.13329907  0.22509060  0.64487225  1
  Li  Li53  1  0.09179153  0.86670093  0.64487225  1
  Li  Li54  1  0.09179153  0.22509060  0.14487225  1
  Li  Li55  1  0.77490940  0.86670093  0.14487225  1
  Li  Li56  1  0.13329907  0.90820847  0.14487225  1
  Li  Li57  1  0.22509060  0.09179153  0.35512775  1
  Li  Li58  1  0.86670093  0.77490940  0.35512775  1
  Li  Li59  1  0.90820847  0.13329907  0.35512775  1
  Li  Li60  1  0.57487514  0.10824273  0.18846108  1
  Li  Li61  1  0.89175727  0.46663241  0.18846108  1
  Li  Li62  1  0.53336759  0.42512486  0.18846108  1
  Li  Li63  1  0.44157606  0.24154180  0.97820559  1
  Li  Li64  1  0.79996574  0.55842394  0.97820559  1
  Li  Li65  1  0.75845820  0.20003426  0.97820559  1
  Li  Li66  1  0.75845820  0.55842394  0.47820559  1
  Li  Li67  1  0.44157606  0.20003426  0.47820559  1
  Li  Li68  1  0.79996574  0.24154180  0.47820559  1
  Li  Li69  1  0.89175727  0.42512486  0.68846108  1
  Li  Li70  1  0.53336759  0.10824273  0.68846108  1
  Li  Li71  1  0.57487514  0.46663241  0.68846108  1
  Li  Li72  1  0.24154180  0.44157606  0.52179441  1
  Li  Li73  1  0.55842394  0.79996574  0.52179441  1
  Li  Li74  1  0.20003426  0.75845820  0.52179441  1
  Li  Li75  1  0.10824273  0.57487514  0.31153892  1
  Li  Li76  1  0.46663241  0.89175727  0.31153892  1
  Li  Li77  1  0.42512486  0.53336759  0.31153892  1
  Li  Li78  1  0.42512486  0.89175727  0.81153892  1
  Li  Li79  1  0.10824273  0.53336759  0.81153892  1
  Li  Li80  1  0.46663241  0.57487514  0.81153892  1
  Li  Li81  1  0.55842394  0.75845820  0.02179441  1
  Li  Li82  1  0.20003426  0.44157606  0.02179441  1
  Li  Li83  1  0.24154180  0.79996574  0.02179441  1
  Li  Li84  1  0.81994101  0.89805580  0.46493194  1
  Li  Li85  1  0.10194420  0.92188522  0.46493194  1
  Li  Li86  1  0.07811478  0.18005899  0.46493194  1
  Li  Li87  1  0.89805580  0.81994101  0.03506806  1
  Li  Li88  1  0.92188522  0.10194420  0.03506806  1
  Li  Li89  1  0.18005899  0.07811478  0.03506806  1
  Li  Li90  1  0.18005899  0.10194420  0.53506806  1
  Li  Li91  1  0.89805580  0.07811478  0.53506806  1
  Li  Li92  1  0.92188522  0.81994101  0.53506806  1
  Li  Li93  1  0.10194420  0.18005899  0.96493194  1
  Li  Li94  1  0.07811478  0.89805580  0.96493194  1
  Li  Li95  1  0.81994101  0.92188522  0.96493194  1
  Li  Li96  1  0.48660768  0.23138913  0.79826528  1
  Li  Li97  1  0.76861087  0.25521855  0.79826528  1
  Li  Li98  1  0.74478145  0.51339232  0.79826528  1
  Li  Li99  1  0.56472246  0.15327434  0.36840139  1
  Li  Li100  1  0.58855188  0.43527754  0.36840139  1
  Li  Li101  1  0.84672566  0.41144812  0.36840139  1
  Li  Li102  1  0.84672566  0.43527754  0.86840139  1
  Li  Li103  1  0.56472246  0.41144812  0.86840139  1
  Li  Li104  1  0.58855188  0.15327434  0.86840139  1
  Li  Li105  1  0.76861087  0.51339232  0.29826528  1
  Li  Li106  1  0.74478145  0.23138913  0.29826528  1
  Li  Li107  1  0.48660768  0.25521855  0.29826528  1
  Li  Li108  1  0.15327434  0.56472246  0.13159861  1
  Li  Li109  1  0.43527754  0.58855188  0.13159861  1
  Li  Li110  1  0.41144812  0.84672566  0.13159861  1
  Li  Li111  1  0.23138913  0.48660768  0.70173472  1
  Li  Li112  1  0.25521855  0.76861087  0.70173472  1
  Li  Li113  1  0.51339232  0.74478145  0.70173472  1
  Li  Li114  1  0.51339232  0.76861087  0.20173472  1
  Li  Li115  1  0.23138913  0.74478145  0.20173472  1
  Li  Li116  1  0.25521855  0.48660768  0.20173472  1
  Li  Li117  1  0.43527754  0.84672566  0.63159861  1
  Li  Li118  1  0.41144812  0.56472246  0.63159861  1
  Li  Li119  1  0.15327434  0.58855188  0.63159861  1
  Li  Li120  1  0.68227935  -0.00000000  0.25000000  1
  Li  Li121  1  0.00000000  0.68227935  0.25000000  1
  Li  Li122  1  0.31772065  0.31772065  0.25000000  1
  Li  Li123  1  0.31772065  0.00000000  0.75000000  1
  Li  Li124  1  0.00000000  0.31772065  0.75000000  1
  Li  Li125  1  0.68227935  0.68227935  0.75000000  1
  Li  Li126  1  0.34894601  0.33333333  0.58333333  1
  Li  Li127  1  0.66666667  0.01561268  0.58333333  1
  Li  Li128  1  0.98438732  0.65105399  0.58333333  1
  Li  Li129  1  0.98438732  0.33333333  0.08333333  1
  Li  Li130  1  0.66666667  0.65105399  0.08333333  1
  Li  Li131  1  0.34894601  0.01561268  0.08333333  1
  Li  Li132  1  0.01561268  0.66666667  0.91666667  1
  Li  Li133  1  0.33333333  0.34894601  0.91666667  1
  Li  Li134  1  0.65105399  0.98438732  0.91666667  1
  Li  Li135  1  0.65105399  0.66666667  0.41666667  1
  Li  Li136  1  0.33333333  0.98438732  0.41666667  1
  Li  Li137  1  0.01561268  0.34894601  0.41666667  1
  Li  Li138  1  0.00000000  0.00000000  0.00000000  1
  Li  Li139  1  0.00000000  0.00000000  0.50000000  1
  Li  Li140  1  0.66666667  0.33333333  0.33333333  1
  Li  Li141  1  0.66666667  0.33333333  0.83333333  1
  Li  Li142  1  0.33333333  0.66666667  0.66666667  1
  Li  Li143  1  0.33333333  0.66666667  0.16666667  1
  Te  Te144  1  0.00000000  0.00000000  0.25000000  1
  Te  Te145  1  0.00000000  0.00000000  0.75000000  1
  Te  Te146  1  0.66666667  0.33333333  0.58333333  1
  Te  Te147  1  0.66666667  0.33333333  0.08333333  1
  Te  Te148  1  0.33333333  0.66666667  0.91666667  1
  Te  Te149  1  0.33333333  0.66666667  0.41666667  1
  Te  Te150  1  0.50000000  -0.00000000  -0.00000000  1
  Te  Te151  1  0.00000000  0.50000000  0.00000000  1
  Te  Te152  1  0.50000000  0.50000000  0.00000000  1
  Te  Te153  1  0.00000000  0.50000000  0.50000000  1
  Te  Te154  1  0.50000000  -0.00000000  0.50000000  1
  Te  Te155  1  0.50000000  0.50000000  0.50000000  1
  Te  Te156  1  0.16666667  0.33333333  0.33333333  1
  Te  Te157  1  0.66666667  0.83333333  0.33333333  1
  Te  Te158  1  0.16666667  0.83333333  0.33333333  1
  Te  Te159  1  0.66666667  0.83333333  0.83333333  1
  Te  Te160  1  0.16666667  0.33333333  0.83333333  1
  Te  Te161  1  0.16666667  0.83333333  0.83333333  1
  Te  Te162  1  0.83333333  0.66666667  0.66666667  1
  Te  Te163  1  0.33333333  0.16666667  0.66666667  1
  Te  Te164  1  0.83333333  0.16666667  0.66666667  1
  Te  Te165  1  0.33333333  0.16666667  0.16666667  1
  Te  Te166  1  0.83333333  0.66666667  0.16666667  1
  Te  Te167  1  0.83333333  0.16666667  0.16666667  1
