# generated using pymatgen
data_LiYTe4AsP3
_symmetry_space_group_name_H-M   'P 1'
_cell_length_a   5.21006287
_cell_length_b   5.29527625
_cell_length_c   7.12869554
_cell_angle_alpha   95.15090254
_cell_angle_beta   99.83867806
_cell_angle_gamma   106.64400172
_symmetry_Int_Tables_number   1
_chemical_formula_structural   LiYTe4AsP3
_chemical_formula_sum   'Li1 Y1 Te4 As1 P3'
_cell_volume   183.64480051
_cell_formula_units_Z   1
loop_
 _symmetry_equiv_pos_site_id
 _symmetry_equiv_pos_as_xyz
  1  'x, y, z'
loop_
 _atom_site_type_symbol
 _atom_site_label
 _atom_site_symmetry_multiplicity
 _atom_site_fract_x
 _atom_site_fract_y
 _atom_site_fract_z
 _atom_site_occupancy
  Te  Te0  1  0.12500000  0.00000000  0.25000000  1
  Te  Te1  1  0.00000000  0.00000000  0.00000000  1
  Te  Te2  1  0.37500000  0.00000000  0.25000000  1
  Te  Te3  1  0.25000000  0.25000000  0.25000000  1
  Y  Y4  1  0.00000000  0.25000000  0.12500000  1
  P  P5  1  0.63830531  0.72025395  0.16636265  1
  P  P6  1  0.25903569  0.25608356  0.98552854  1
  P  P7  1  0.15372099  0.36308177  0.10811992  1
  As  As8  1  0.49021334  0.31242239  0.20367139  1
  Li  Li9  1  0.82819533  0.98854045  0.39474101  1
