# generated using pymatgen
data_LiYP2Se
_symmetry_space_group_name_H-M   'P 1'
_cell_length_a   3.81701511
_cell_length_b   4.09374115
_cell_length_c   6.72054388
_cell_angle_alpha   96.83425797
_cell_angle_beta   104.88359304
_cell_angle_gamma   117.45049804
_symmetry_Int_Tables_number   1
_chemical_formula_structural   LiYP2Se
_chemical_formula_sum   'Li2 Y2 P4 Se2'
_cell_volume   86.54482594
_cell_formula_units_Z   2
loop_
 _symmetry_equiv_pos_site_id
 _symmetry_equiv_pos_as_xyz
  1  'x, y, z'
loop_
 _atom_site_type_symbol
 _atom_site_label
 _atom_site_symmetry_multiplicity
 _atom_site_fract_x
 _atom_site_fract_y
 _atom_site_fract_z
 _atom_site_occupancy
  Y  Y0  1  0.00000000  0.00000000  0.00000000  1
  Y  Y1  1  0.33300000  0.66700000  0.25000000  1
  P  P2  1  0.66700000  0.33300000  0.50000000  1
  P  P3  1  0.00000000  0.00000000  0.75000000  1
  P  P4  1  0.01885804  0.61522089  0.62969888  1
  P  P5  1  0.59928501  0.77043113  0.69115710  1
  Se  Se6  1  0.44551607  0.83408489  0.81881581  1
  Se  Se7  1  0.72686787  0.83116226  0.19780943  1
  Li  Li8  1  0.91703018  0.23761796  0.25682987  1
  Li  Li9  1  0.96066709  0.82531182  0.49526587  1
