# generated using pymatgen
data_LiF
_symmetry_space_group_name_H-M   'P 1'
_cell_length_a   14.09042576
_cell_length_b   6.99918546
_cell_length_c   9.71861033
_cell_angle_alpha   90.00000000
_cell_angle_beta   90.00000000
_cell_angle_gamma   90.00000000
_symmetry_Int_Tables_number   1
_chemical_formula_structural   LiF
_chemical_formula_sum   'Li24 F24'
_cell_volume   958.46395967
_cell_formula_units_Z   24
loop_
 _symmetry_equiv_pos_site_id
 _symmetry_equiv_pos_as_xyz
  1  'x, y, z'
loop_
 _atom_site_type_symbol
 _atom_site_label
 _atom_site_symmetry_multiplicity
 _atom_site_fract_x
 _atom_site_fract_y
 _atom_site_fract_z
 _atom_site_occupancy
  F  F0  1  0.97075322  0.25000000  0.08079405  1
  F  F1  1  0.52924678  0.75000000  0.58079405  1
  F  F2  1  0.02924678  0.75000000  0.91920595  1
  F  F3  1  0.47075322  0.25000000  0.41920595  1
  F  F4  1  0.15712110  0.17645175  0.58806429  1
  F  F5  1  0.34287890  0.82354825  0.08806429  1
  F  F6  1  0.84287890  0.67645175  0.41193571  1
  F  F7  1  0.65712110  0.32354825  0.91193571  1
  F  F8  1  0.84287890  0.82354825  0.41193571  1
  F  F9  1  0.65712110  0.17645175  0.91193571  1
  F  F10  1  0.15712110  0.32354825  0.58806429  1
  F  F11  1  0.34287890  0.67645175  0.08806429  1
  F  F12  1  0.48959667  0.98370642  0.75593382  1
  F  F13  1  0.01040333  0.01629358  0.25593382  1
  F  F14  1  0.51040333  0.48370642  0.24406618  1
  F  F15  1  0.98959667  0.51629358  0.74406618  1
  F  F16  1  0.51040333  0.01629358  0.24406618  1
  F  F17  1  0.98959667  0.98370642  0.74406618  1
  F  F18  1  0.48959667  0.51629358  0.75593382  1
  F  F19  1  0.01040333  0.48370642  0.25593382  1
  F  F20  1  0.85291315  0.25000000  0.09252590  1
  F  F21  1  0.64708685  0.75000000  0.59252590  1
  F  F22  1  0.14708685  0.75000000  0.90747410  1
  F  F23  1  0.35291315  0.25000000  0.40747410  1
  Li  Li24  1  0.00000000  0.00000000  0.50000000  1
  Li  Li25  1  0.50000000  -0.00000000  -0.00000000  1
  Li  Li26  1  0.00000000  0.50000000  0.50000000  1
  Li  Li27  1  0.50000000  0.50000000  -0.00000000  1
  Li  Li28  1  0.96637048  0.25000000  0.70646088  1
  Li  Li29  1  0.53362952  0.75000000  0.20646088  1
  Li  Li30  1  0.03362952  0.75000000  0.29353912  1
  Li  Li31  1  0.46637048  0.25000000  0.79353912  1
  Li  Li32  1  0.77202632  0.06757681  0.61198365  1
  Li  Li33  1  -0.27202632  -0.06757681  1.11198365  1
  Li  Li34  1  -0.77202632  0.56757681  -0.61198365  1
  Li  Li35  1  1.27202632  0.43242319  -0.11198365  1
  Li  Li36  1  -0.77202632  -0.06757681  -0.61198365  1
  Li  Li37  1  1.27202632  0.06757681  -0.11198365  1
  Li  Li38  1  0.77202632  0.43242319  0.61198365  1
  Li  Li39  1  -0.27202632  0.56757681  1.11198365  1
  Li  Li40  1  0.00000000  0.00000000  0.00000000  1
  Li  Li41  1  0.50000000  -0.00000000  0.50000000  1
  Li  Li42  1  0.00000000  0.50000000  0.00000000  1
  Li  Li43  1  0.50000000  0.50000000  0.50000000  1
  Li  Li44  1  0.45151560  0.25000000  0.26581465  1
  Li  Li45  1  0.04848440  0.75000000  0.76581465  1
  Li  Li46  1  0.54848440  0.75000000  0.73418535  1
  Li  Li47  1  0.95151560  0.25000000  0.23418535  1
