# generated using pymatgen
data_Li2Ca3F8
_symmetry_space_group_name_H-M   'P 1'
_cell_length_a   10.96300042
_cell_length_b   10.96300042
_cell_length_c   14.48886046
_cell_angle_alpha   90.00000000
_cell_angle_beta   90.00000000
_cell_angle_gamma   90.00000000
_symmetry_Int_Tables_number   1
_chemical_formula_structural   Li2Ca3F8
_chemical_formula_sum   'Li16 Ca24 F64'
_cell_volume   1741.37815115
_cell_formula_units_Z   8
loop_
 _symmetry_equiv_pos_site_id
 _symmetry_equiv_pos_as_xyz
  1  'x, y, z'
loop_
 _atom_site_type_symbol
 _atom_site_label
 _atom_site_symmetry_multiplicity
 _atom_site_fract_x
 _atom_site_fract_y
 _atom_site_fract_z
 _atom_site_occupancy
  Ca  Ca0  1  0.00000000  0.25000000  0.04565882  1
  Ca  Ca1  1  0.00000000  0.75000000  0.29565882  1
  Ca  Ca2  1  0.50000000  0.25000000  0.95434118  1
  Ca  Ca3  1  0.50000000  0.75000000  0.70434118  1
  Ca  Ca4  1  0.00000000  0.75000000  0.95434118  1
  Ca  Ca5  1  0.00000000  0.25000000  0.70434118  1
  Ca  Ca6  1  0.50000000  0.75000000  0.04565882  1
  Ca  Ca7  1  0.50000000  0.25000000  0.29565882  1
  Ca  Ca8  1  0.50000000  0.75000000  0.54565882  1
  Ca  Ca9  1  0.50000000  0.25000000  0.79565882  1
  Ca  Ca10  1  0.00000000  0.75000000  0.45434118  1
  Ca  Ca11  1  0.00000000  0.25000000  0.20434118  1
  Ca  Ca12  1  0.50000000  0.25000000  0.45434118  1
  Ca  Ca13  1  0.50000000  0.75000000  0.20434118  1
  Ca  Ca14  1  0.00000000  0.25000000  0.54565882  1
  Ca  Ca15  1  0.00000000  0.75000000  0.79565882  1
  Ca  Ca16  1  0.00000000  0.25000000  0.37500000  1
  Ca  Ca17  1  0.00000000  0.75000000  0.62500000  1
  Ca  Ca18  1  0.50000000  0.25000000  0.62500000  1
  Ca  Ca19  1  0.50000000  0.75000000  0.37500000  1
  Ca  Ca20  1  0.50000000  0.75000000  0.87500000  1
  Ca  Ca21  1  0.50000000  0.25000000  0.12500000  1
  Ca  Ca22  1  0.00000000  0.75000000  0.12500000  1
  Ca  Ca23  1  0.00000000  0.25000000  0.87500000  1
  F  F24  1  0.72355075  0.20114013  0.35108674  1
  F  F25  1  -0.22355075  -0.20114013  0.85108674  1
  F  F26  1  0.04885987  1.47355075  0.60108674  1
  F  F27  1  0.45114013  -0.47355075  1.10108674  1
  F  F28  1  -0.22355075  0.20114013  -0.35108674  1
  F  F29  1  0.72355075  -0.20114013  0.14891326  1
  F  F30  1  0.45114013  1.47355075  0.39891326  1
  F  F31  1  0.04885987  -0.47355075  -0.10108674  1
  F  F32  1  -0.72355075  -0.20114013  -0.35108674  1
  F  F33  1  1.22355075  0.20114013  0.14891326  1
  F  F34  1  0.95114013  -0.47355075  0.39891326  1
  F  F35  1  0.54885987  1.47355075  -0.10108674  1
  F  F36  1  1.22355075  -0.20114013  0.35108674  1
  F  F37  1  -0.72355075  0.20114013  0.85108674  1
  F  F38  1  0.54885987  -0.47355075  0.60108674  1
  F  F39  1  0.95114013  1.47355075  1.10108674  1
  F  F40  1  1.22355075  0.70114013  0.85108674  1
  F  F41  1  0.27644925  0.29885987  1.35108674  1
  F  F42  1  0.54885987  1.97355075  1.10108674  1
  F  F43  1  0.95114013  0.02644925  1.60108674  1
  F  F44  1  0.27644925  0.70114013  0.14891326  1
  F  F45  1  1.22355075  0.29885987  0.64891326  1
  F  F46  1  0.95114013  1.97355075  0.89891326  1
  F  F47  1  0.54885987  0.02644925  0.39891326  1
  F  F48  1  -0.22355075  0.29885987  0.14891326  1
  F  F49  1  1.72355075  0.70114013  0.64891326  1
  F  F50  1  1.45114013  0.02644925  0.89891326  1
  F  F51  1  1.04885987  1.97355075  0.39891326  1
  F  F52  1  1.72355075  0.29885987  0.85108674  1
  F  F53  1  -0.22355075  0.70114013  1.35108674  1
  F  F54  1  1.04885987  0.02644925  1.10108674  1
  F  F55  1  1.45114013  1.97355075  1.60108674  1
  F  F56  1  0.10020903  0.46788651  0.38654334  1
  F  F57  1  0.39979097  0.53211349  0.88654334  1
  F  F58  1  0.78211349  0.85020903  0.63654334  1
  F  F59  1  0.71788651  0.14979097  0.13654334  1
  F  F60  1  0.39979097  0.46788651  0.61345666  1
  F  F61  1  0.10020903  0.53211349  0.11345666  1
  F  F62  1  0.71788651  0.85020903  0.36345666  1
  F  F63  1  0.78211349  0.14979097  0.86345666  1
  F  F64  1  0.89979097  0.53211349  0.61345666  1
  F  F65  1  0.60020903  0.46788651  0.11345666  1
  F  F66  1  0.21788651  0.14979097  0.36345666  1
  F  F67  1  0.28211349  0.85020903  0.86345666  1
  F  F68  1  0.60020903  0.53211349  0.38654334  1
  F  F69  1  0.89979097  0.46788651  0.88654334  1
  F  F70  1  0.28211349  0.14979097  0.63654334  1
  F  F71  1  0.21788651  0.85020903  0.13654334  1
  F  F72  1  0.60020903  0.96788651  0.88654334  1
  F  F73  1  0.89979097  0.03211349  0.38654334  1
  F  F74  1  0.28211349  0.35020903  0.13654334  1
  F  F75  1  0.21788651  0.64979097  0.63654334  1
  F  F76  1  0.89979097  0.96788651  0.11345666  1
  F  F77  1  0.60020903  0.03211349  0.61345666  1
  F  F78  1  0.21788651  0.35020903  0.86345666  1
  F  F79  1  0.28211349  0.64979097  0.36345666  1
  F  F80  1  0.39979097  0.03211349  0.11345666  1
  F  F81  1  0.10020903  0.96788651  0.61345666  1
  F  F82  1  0.71788651  0.64979097  0.86345666  1
  F  F83  1  0.78211349  0.35020903  0.36345666  1
  F  F84  1  0.10020903  0.03211349  0.88654334  1
  F  F85  1  0.39979097  0.96788651  0.38654334  1
  F  F86  1  0.78211349  0.64979097  0.13654334  1
  F  F87  1  0.71788651  0.35020903  0.63654334  1
  Li  Li88  1  0.00000000  0.00000000  0.00000000  1
  Li  Li89  1  0.50000000  0.00000000  0.50000000  1
  Li  Li90  1  0.25000000  0.75000000  0.25000000  1
  Li  Li91  1  0.25000000  0.25000000  0.75000000  1
  Li  Li92  1  0.50000000  0.00000000  0.00000000  1
  Li  Li93  1  0.00000000  0.00000000  0.50000000  1
  Li  Li94  1  0.25000000  0.75000000  0.75000000  1
  Li  Li95  1  0.25000000  0.25000000  0.25000000  1
  Li  Li96  1  0.50000000  0.50000000  0.50000000  1
  Li  Li97  1  0.00000000  0.50000000  0.00000000  1
  Li  Li98  1  0.75000000  0.25000000  0.75000000  1
  Li  Li99  1  0.75000000  0.75000000  0.25000000  1
  Li  Li100  1  0.00000000  0.50000000  0.50000000  1
  Li  Li101  1  0.50000000  0.50000000  0.00000000  1
  Li  Li102  1  0.75000000  0.25000000  0.25000000  1
  Li  Li103  1  0.75000000  0.75000000  0.75000000  1
