# generated using pymatgen
data_LiF
_symmetry_space_group_name_H-M   'P 1'
_cell_length_a   8.90202988
_cell_length_b   8.11754552
_cell_length_c   20.29187833
_cell_angle_alpha   90.00000000
_cell_angle_beta   90.00000000
_cell_angle_gamma   90.00000000
_symmetry_Int_Tables_number   1
_chemical_formula_structural   LiF
_chemical_formula_sum   'Li44 F44'
_cell_volume   1466.34455139
_cell_formula_units_Z   44
loop_
 _symmetry_equiv_pos_site_id
 _symmetry_equiv_pos_as_xyz
  1  'x, y, z'
loop_
 _atom_site_type_symbol
 _atom_site_label
 _atom_site_symmetry_multiplicity
 _atom_site_fract_x
 _atom_site_fract_y
 _atom_site_fract_z
 _atom_site_occupancy
  F  F0  1  0.60607432  0.53846685  0.65579174  1
  F  F1  1  0.89392568  0.46153315  0.15579174  1
  F  F2  1  0.39392568  0.03846685  0.34420826  1
  F  F3  1  0.10607432  0.96153315  0.84420826  1
  F  F4  1  0.39392568  0.46153315  0.34420826  1
  F  F5  1  0.10607432  0.53846685  0.84420826  1
  F  F6  1  0.60607432  0.96153315  0.65579174  1
  F  F7  1  0.89392568  0.03846685  0.15579174  1
  F  F8  1  0.51906603  0.81363472  0.31817310  1
  F  F9  1  0.98093397  0.18636528  0.81817310  1
  F  F10  1  0.48093397  0.31363472  0.68182690  1
  F  F11  1  0.01906603  0.68636528  0.18182690  1
  F  F12  1  0.48093397  0.18636528  0.68182690  1
  F  F13  1  0.01906603  0.81363472  0.18182690  1
  F  F14  1  0.51906603  0.68636528  0.31817310  1
  F  F15  1  0.98093397  0.31363472  0.81817310  1
  F  F16  1  0.39294682  0.71148484  0.55820543  1
  F  F17  1  0.10705318  0.28851516  0.05820543  1
  F  F18  1  0.60705318  0.21148484  0.44179457  1
  F  F19  1  0.89294682  0.78851516  0.94179457  1
  F  F20  1  0.60705318  0.28851516  0.44179457  1
  F  F21  1  0.89294682  0.71148484  0.94179457  1
  F  F22  1  0.39294682  0.78851516  0.55820543  1
  F  F23  1  0.10705318  0.21148484  0.05820543  1
  F  F24  1  0.29988943  0.25000000  0.63930370  1
  F  F25  1  0.20011057  0.75000000  0.13930370  1
  F  F26  1  0.70011057  0.75000000  0.36069630  1
  F  F27  1  0.79988943  0.25000000  0.86069630  1
  F  F28  1  0.36462484  0.84424810  0.26874538  1
  F  F29  1  0.13537516  0.15575190  0.76874538  1
  F  F30  1  0.63537516  0.34424810  0.73125462  1
  F  F31  1  0.86462484  0.65575190  0.23125462  1
  F  F32  1  0.63537516  0.15575190  0.73125462  1
  F  F33  1  0.86462484  0.84424810  0.23125462  1
  F  F34  1  0.36462484  0.65575190  0.26874538  1
  F  F35  1  0.13537516  0.34424810  0.76874538  1
  F  F36  1  0.65618031  0.97223316  0.60549794  1
  F  F37  1  0.84381969  0.02776684  0.10549794  1
  F  F38  1  0.34381969  0.47223316  0.39450206  1
  F  F39  1  0.15618031  0.52776684  0.89450206  1
  F  F40  1  0.34381969  0.02776684  0.39450206  1
  F  F41  1  0.15618031  0.97223316  0.89450206  1
  F  F42  1  0.65618031  0.52776684  0.60549794  1
  F  F43  1  0.84381969  0.47223316  0.10549794  1
  Li  Li44  1  0.75001410  0.25000000  0.13424867  1
  Li  Li45  1  0.74998590  0.75000000  0.63424867  1
  Li  Li46  1  0.24998590  0.75000000  0.86575133  1
  Li  Li47  1  0.25001410  0.25000000  0.36575133  1
  Li  Li48  1  0.64313623  0.25000000  0.99210205  1
  Li  Li49  1  0.85686377  0.75000000  0.49210205  1
  Li  Li50  1  0.35686377  0.75000000  0.00789795  1
  Li  Li51  1  0.14313623  0.25000000  0.50789795  1
  Li  Li52  1  0.00000000  0.00000000  0.00000000  1
  Li  Li53  1  0.50000000  0.00000000  0.50000000  1
  Li  Li54  1  0.00000000  0.50000000  0.00000000  1
  Li  Li55  1  0.50000000  0.50000000  0.50000000  1
  Li  Li56  1  0.37664823  0.25000000  0.08015789  1
  Li  Li57  1  0.12335177  0.75000000  0.58015789  1
  Li  Li58  1  0.62335177  0.75000000  0.91984211  1
  Li  Li59  1  0.87664823  0.25000000  0.41984211  1
  Li  Li60  1  0.69428930  0.98469710  0.49784511  1
  Li  Li61  1  -0.19428930  -0.98469710  0.99784511  1
  Li  Li62  1  -0.69428930  1.48469710  -0.49784511  1
  Li  Li63  1  1.19428930  -0.48469710  0.00215489  1
  Li  Li64  1  -0.69428930  -0.98469710  -0.49784511  1
  Li  Li65  1  1.19428930  0.98469710  0.00215489  1
  Li  Li66  1  0.69428930  -0.48469710  0.49784511  1
  Li  Li67  1  -0.19428930  1.48469710  0.99784511  1
  Li  Li68  1  0.87286283  0.11063115  0.87508215  1
  Li  Li69  1  0.62713717  0.88936885  0.37508215  1
  Li  Li70  1  0.12713717  0.61063115  0.12491785  1
  Li  Li71  1  0.37286283  0.38936885  0.62491785  1
  Li  Li72  1  0.12713717  0.88936885  0.12491785  1
  Li  Li73  1  0.37286283  0.11063115  0.62491785  1
  Li  Li74  1  0.87286283  0.38936885  0.87508215  1
  Li  Li75  1  0.62713717  0.61063115  0.37508215  1
  Li  Li76  1  0.31119700  0.55133285  0.94680399  1
  Li  Li77  1  0.18880300  0.44866715  0.44680399  1
  Li  Li78  1  0.68880300  0.05133285  0.05319601  1
  Li  Li79  1  0.81119700  0.94866715  0.55319601  1
  Li  Li80  1  0.68880300  0.44866715  0.05319601  1
  Li  Li81  1  0.81119700  0.55133285  0.55319601  1
  Li  Li82  1  0.31119700  0.94866715  0.94680399  1
  Li  Li83  1  0.18880300  0.05133285  0.44680399  1
  Li  Li84  1  0.00000000  0.00000000  0.50000000  1
  Li  Li85  1  0.50000000  0.00000000  0.00000000  1
  Li  Li86  1  0.00000000  0.50000000  0.50000000  1
  Li  Li87  1  0.50000000  0.50000000  0.00000000  1
