# generated using pymatgen
data_LiF
_symmetry_space_group_name_H-M   'P 1'
_cell_length_a   9.96380839
_cell_length_b   9.96380839
_cell_length_c   11.47085643
_cell_angle_alpha   90.00000000
_cell_angle_beta   90.00000000
_cell_angle_gamma   90.00000000
_symmetry_Int_Tables_number   1
_chemical_formula_structural   LiF
_chemical_formula_sum   'Li36 F36'
_cell_volume   1138.79769224
_cell_formula_units_Z   36
loop_
 _symmetry_equiv_pos_site_id
 _symmetry_equiv_pos_as_xyz
  1  'x, y, z'
loop_
 _atom_site_type_symbol
 _atom_site_label
 _atom_site_symmetry_multiplicity
 _atom_site_fract_x
 _atom_site_fract_y
 _atom_site_fract_z
 _atom_site_occupancy
  F  F0  1  0.62955324  0.60440467  0.80646755  1
  F  F1  1  -0.12955324  -0.60440467  1.30646755  1
  F  F2  1  -0.35440467  1.37955324  1.05646755  1
  F  F3  1  0.85440467  -0.37955324  1.55646755  1
  F  F4  1  -0.12955324  0.60440467  -0.30646755  1
  F  F5  1  0.62955324  -0.60440467  -0.80646755  1
  F  F6  1  0.85440467  1.37955324  -0.55646755  1
  F  F7  1  -0.35440467  -0.37955324  -0.05646755  1
  F  F8  1  -0.62955324  -0.60440467  -0.80646755  1
  F  F9  1  1.12955324  0.60440467  -0.30646755  1
  F  F10  1  1.35440467  -0.37955324  -0.05646755  1
  F  F11  1  0.14559533  1.37955324  -0.55646755  1
  F  F12  1  1.12955324  -0.60440467  1.30646755  1
  F  F13  1  -0.62955324  0.60440467  0.80646755  1
  F  F14  1  0.14559533  -0.37955324  1.55646755  1
  F  F15  1  1.35440467  1.37955324  1.05646755  1
  F  F16  1  1.12955324  1.10440467  1.30646755  1
  F  F17  1  0.37044676  -0.10440467  1.80646755  1
  F  F18  1  0.14559533  1.87955324  1.55646755  1
  F  F19  1  1.35440467  0.12044676  2.05646755  1
  F  F20  1  0.37044676  1.10440467  0.19353245  1
  F  F21  1  1.12955324  -0.10440467  -0.30646755  1
  F  F22  1  1.35440467  1.87955324  -0.05646755  1
  F  F23  1  0.14559533  0.12044676  0.44353245  1
  F  F24  1  -0.12955324  -0.10440467  -0.30646755  1
  F  F25  1  1.62955324  1.10440467  0.19353245  1
  F  F26  1  1.85440467  0.12044676  0.44353245  1
  F  F27  1  0.64559533  1.87955324  -0.05646755  1
  F  F28  1  1.62955324  -0.10440467  1.80646755  1
  F  F29  1  -0.12955324  1.10440467  1.30646755  1
  F  F30  1  0.64559533  0.12044676  2.05646755  1
  F  F31  1  1.85440467  1.87955324  1.55646755  1
  F  F32  1  0.00000000  0.75000000  0.12500000  1
  F  F33  1  0.50000000  0.75000000  0.37500000  1
  F  F34  1  0.50000000  0.25000000  0.62500000  1
  F  F35  1  0.00000000  0.25000000  0.87500000  1
  Li  Li36  1  0.67740647  0.92740647  0.87500000  1
  Li  Li37  1  0.82259353  0.07259353  0.37500000  1
  Li  Li38  1  0.32259353  0.42740647  0.12500000  1
  Li  Li39  1  0.17740647  0.57259353  0.62500000  1
  Li  Li40  1  0.32259353  0.07259353  0.12500000  1
  Li  Li41  1  0.17740647  0.92740647  0.62500000  1
  Li  Li42  1  0.67740647  0.57259353  0.87500000  1
  Li  Li43  1  0.82259353  0.42740647  0.37500000  1
  Li  Li44  1  0.17740647  0.42740647  0.37500000  1
  Li  Li45  1  0.32259353  0.57259353  0.87500000  1
  Li  Li46  1  0.82259353  0.92740647  0.62500000  1
  Li  Li47  1  0.67740647  0.07259353  0.12500000  1
  Li  Li48  1  0.82259353  0.57259353  0.62500000  1
  Li  Li49  1  0.67740647  0.42740647  0.12500000  1
  Li  Li50  1  0.17740647  0.07259353  0.37500000  1
  Li  Li51  1  0.32259353  0.92740647  0.87500000  1
  Li  Li52  1  0.00000000  0.25000000  0.37500000  1
  Li  Li53  1  0.00000000  0.75000000  0.62500000  1
  Li  Li54  1  0.50000000  0.75000000  0.87500000  1
  Li  Li55  1  0.50000000  0.25000000  0.12500000  1
  Li  Li56  1  0.42882621  0.00000000  0.00000000  1
  Li  Li57  1  0.07117379  0.00000000  0.50000000  1
  Li  Li58  1  0.25000000  0.17882621  0.25000000  1
  Li  Li59  1  0.25000000  0.82117379  0.75000000  1
  Li  Li60  1  0.57117379  0.00000000  0.00000000  1
  Li  Li61  1  0.92882621  0.00000000  0.50000000  1
  Li  Li62  1  0.75000000  0.82117379  0.75000000  1
  Li  Li63  1  0.75000000  0.17882621  0.25000000  1
  Li  Li64  1  0.92882621  0.50000000  0.50000000  1
  Li  Li65  1  0.57117379  0.50000000  -0.00000000  1
  Li  Li66  1  0.75000000  0.67882621  0.75000000  1
  Li  Li67  1  0.75000000  0.32117379  0.25000000  1
  Li  Li68  1  0.07117379  0.50000000  0.50000000  1
  Li  Li69  1  0.42882621  0.50000000  0.00000000  1
  Li  Li70  1  0.25000000  0.32117379  0.25000000  1
  Li  Li71  1  0.25000000  0.67882621  0.75000000  1
