# generated using pymatgen
data_LiF
_symmetry_space_group_name_H-M   'P 1'
_cell_length_a   5.93894709
_cell_length_b   5.93894709
_cell_length_c   12.72134056
_cell_angle_alpha   90.00000000
_cell_angle_beta   90.00000000
_cell_angle_gamma   120.00000000
_symmetry_Int_Tables_number   1
_chemical_formula_structural   LiF
_chemical_formula_sum   'Li10 F10'
_cell_volume   388.58177150
_cell_formula_units_Z   10
loop_
 _symmetry_equiv_pos_site_id
 _symmetry_equiv_pos_as_xyz
  1  'x, y, z'
loop_
 _atom_site_type_symbol
 _atom_site_label
 _atom_site_symmetry_multiplicity
 _atom_site_fract_x
 _atom_site_fract_y
 _atom_site_fract_z
 _atom_site_occupancy
  F  F0  1  0.66666667  0.33333333  -0.00000000  1
  F  F1  1  0.38020255  0.74074123  0.66065737  1
  F  F2  1  0.25925877  0.63946133  0.66065737  1
  F  F3  1  0.36053867  0.61979745  0.66065737  1
  F  F4  1  0.25925877  0.61979745  0.33934263  1
  F  F5  1  0.36053867  0.74074123  0.33934263  1
  F  F6  1  0.38020255  0.63946133  0.33934263  1
  F  F7  1  0.33333333  0.66666667  0.44311997  1
  F  F8  1  0.33333333  0.66666667  0.55688003  1
  F  F9  1  0.33333333  0.66666667  -0.00000000  1
  Li  Li10  1  0.81352809  0.82995336  0.25525240  1
  Li  Li11  1  -0.82995336  -0.01642527  0.25525240  1
  Li  Li12  1  0.01642527  -0.81352809  0.25525240  1
  Li  Li13  1  -0.82995336  -0.81352809  -0.25525240  1
  Li  Li14  1  0.01642527  0.82995336  -0.25525240  1
  Li  Li15  1  0.81352809  -0.01642527  -0.25525240  1
  Li  Li16  1  0.07755714  0.92244286  0.00000000  1
  Li  Li17  1  0.07755714  0.15511429  0.00000000  1
  Li  Li18  1  0.84488571  0.92244286  0.00000000  1
  Li  Li19  1  0.66666667  0.33333333  0.50000000  1
