# generated using pymatgen
data_LiF
_symmetry_space_group_name_H-M   'P 1'
_cell_length_a   7.28833697
_cell_length_b   11.62103880
_cell_length_c   5.83520481
_cell_angle_alpha   90.00000000
_cell_angle_beta   90.00000000
_cell_angle_gamma   90.00000000
_symmetry_Int_Tables_number   1
_chemical_formula_structural   LiF
_chemical_formula_sum   'Li24 F24'
_cell_volume   494.23044962
_cell_formula_units_Z   24
loop_
 _symmetry_equiv_pos_site_id
 _symmetry_equiv_pos_as_xyz
  1  'x, y, z'
loop_
 _atom_site_type_symbol
 _atom_site_label
 _atom_site_symmetry_multiplicity
 _atom_site_fract_x
 _atom_site_fract_y
 _atom_site_fract_z
 _atom_site_occupancy
  F  F0  1  0.15933719  0.35244447  0.14256106  1
  F  F1  1  0.34066281  0.64755553  0.64256106  1
  F  F2  1  0.84066281  0.85244447  0.85743894  1
  F  F3  1  0.65933719  0.14755553  0.35743894  1
  F  F4  1  0.84066281  0.64755553  0.85743894  1
  F  F5  1  0.65933719  0.35244447  0.35743894  1
  F  F6  1  0.15933719  0.14755553  0.14256106  1
  F  F7  1  0.34066281  0.85244447  0.64256106  1
  F  F8  1  0.97029026  0.93410057  0.76577075  1
  F  F9  1  0.52970974  0.06589943  0.26577075  1
  F  F10  1  0.02970974  0.43410057  0.23422925  1
  F  F11  1  0.47029026  0.56589943  0.73422925  1
  F  F12  1  0.02970974  0.06589943  0.23422925  1
  F  F13  1  0.47029026  0.93410057  0.73422925  1
  F  F14  1  0.97029026  0.56589943  0.76577075  1
  F  F15  1  0.52970974  0.43410057  0.26577075  1
  F  F16  1  0.67900934  0.11290881  0.82159643  1
  F  F17  1  0.82099066  0.88709119  0.32159643  1
  F  F18  1  0.32099066  0.61290881  0.17840357  1
  F  F19  1  0.17900934  0.38709119  0.67840357  1
  F  F20  1  0.32099066  0.88709119  0.17840357  1
  F  F21  1  0.17900934  0.11290881  0.67840357  1
  F  F22  1  0.67900934  0.38709119  0.82159643  1
  F  F23  1  0.82099066  0.61290881  0.32159643  1
  Li  Li24  1  0.68582230  0.25000000  0.32792516  1
  Li  Li25  1  0.81417770  0.75000000  0.82792516  1
  Li  Li26  1  0.31417770  0.75000000  0.67207484  1
  Li  Li27  1  0.18582230  0.25000000  0.17207484  1
  Li  Li28  1  0.00000000  0.00000000  0.50000000  1
  Li  Li29  1  0.50000000  0.00000000  0.00000000  1
  Li  Li30  1  0.00000000  0.50000000  0.50000000  1
  Li  Li31  1  0.50000000  0.50000000  0.00000000  1
  Li  Li32  1  0.77772462  0.48676654  0.85811087  1
  Li  Li33  1  -0.27772462  -0.48676654  1.35811087  1
  Li  Li34  1  -0.77772462  0.98676654  -0.85811087  1
  Li  Li35  1  1.27772462  0.01323346  -0.35811087  1
  Li  Li36  1  -0.77772462  -0.48676654  -0.85811087  1
  Li  Li37  1  1.27772462  0.48676654  -0.35811087  1
  Li  Li38  1  0.77772462  0.01323346  0.85811087  1
  Li  Li39  1  -0.27772462  0.98676654  1.35811087  1
  Li  Li40  1  0.84872288  0.33015967  0.63887005  1
  Li  Li41  1  0.65127712  0.66984033  0.13887005  1
  Li  Li42  1  0.15127712  0.83015967  0.36112995  1
  Li  Li43  1  0.34872288  0.16984033  0.86112995  1
  Li  Li44  1  0.15127712  0.66984033  0.36112995  1
  Li  Li45  1  0.34872288  0.33015967  0.86112995  1
  Li  Li46  1  0.84872288  0.16984033  0.63887005  1
  Li  Li47  1  0.65127712  0.83015967  0.13887005  1
