# generated using pymatgen
data_LiF
_symmetry_space_group_name_H-M   'P 1'
_cell_length_a   9.72146621
_cell_length_b   7.07871508
_cell_length_c   10.59814286
_cell_angle_alpha   90.00000000
_cell_angle_beta   90.00000000
_cell_angle_gamma   90.00000000
_symmetry_Int_Tables_number   1
_chemical_formula_structural   LiF
_chemical_formula_sum   'Li20 F20'
_cell_volume   729.31638858
_cell_formula_units_Z   20
loop_
 _symmetry_equiv_pos_site_id
 _symmetry_equiv_pos_as_xyz
  1  'x, y, z'
loop_
 _atom_site_type_symbol
 _atom_site_label
 _atom_site_symmetry_multiplicity
 _atom_site_fract_x
 _atom_site_fract_y
 _atom_site_fract_z
 _atom_site_occupancy
  F  F0  1  0.65443995  0.96325759  -0.00000000  1
  F  F1  1  0.34556005  0.03674241  0.00000000  1
  F  F2  1  0.84556005  0.46325759  0.00000000  1
  F  F3  1  0.15443995  0.53674241  -0.00000000  1
  F  F4  1  0.00000000  0.00000000  0.00000000  1
  F  F5  1  0.50000000  0.50000000  -0.00000000  1
  F  F6  1  0.88018496  0.00881463  0.24679174  1
  F  F7  1  0.11981504  0.99118537  0.24679174  1
  F  F8  1  0.61981504  0.50881463  0.75320826  1
  F  F9  1  0.38018496  0.49118537  0.75320826  1
  F  F10  1  0.11981504  0.99118537  0.75320826  1
  F  F11  1  0.88018496  0.00881463  0.75320826  1
  F  F12  1  0.38018496  0.49118537  0.24679174  1
  F  F13  1  0.61981504  0.50881463  0.24679174  1
  F  F14  1  0.65040256  0.97084771  0.50000000  1
  F  F15  1  0.34959744  0.02915229  0.50000000  1
  F  F16  1  0.84959744  0.47084771  0.50000000  1
  F  F17  1  0.15040256  0.52915229  0.50000000  1
  F  F18  1  0.00000000  0.00000000  0.50000000  1
  F  F19  1  0.50000000  0.50000000  0.50000000  1
  Li  Li20  1  0.63927435  0.70490346  0.27993776  1
  Li  Li21  1  -0.63927435  -0.70490346  0.27993776  1
  Li  Li22  1  -0.13927435  1.20490346  -0.27993776  1
  Li  Li23  1  1.13927435  -0.20490346  -0.27993776  1
  Li  Li24  1  -0.63927435  -0.70490346  -0.27993776  1
  Li  Li25  1  0.63927435  0.70490346  -0.27993776  1
  Li  Li26  1  1.13927435  -0.20490346  0.27993776  1
  Li  Li27  1  -0.13927435  1.20490346  0.27993776  1
  Li  Li28  1  0.00000000  0.50000000  0.50000000  1
  Li  Li29  1  0.50000000  0.00000000  0.50000000  1
  Li  Li30  1  0.00000000  0.50000000  0.00000000  1
  Li  Li31  1  0.50000000  0.00000000  0.00000000  1
  Li  Li32  1  0.29780791  0.80174307  0.60636063  1
  Li  Li33  1  0.70219209  0.19825693  0.60636063  1
  Li  Li34  1  0.20219209  0.30174307  0.39363937  1
  Li  Li35  1  0.79780791  0.69825693  0.39363937  1
  Li  Li36  1  0.70219209  0.19825693  0.39363937  1
  Li  Li37  1  0.29780791  0.80174307  0.39363937  1
  Li  Li38  1  0.79780791  0.69825693  0.60636063  1
  Li  Li39  1  0.20219209  0.30174307  0.60636063  1
