# generated using pymatgen
data_LiF
_symmetry_space_group_name_H-M   'P 1'
_cell_length_a   9.51069959
_cell_length_b   9.51069959
_cell_length_c   8.95274537
_cell_angle_alpha   90.00000000
_cell_angle_beta   90.00000000
_cell_angle_gamma   90.00000000
_symmetry_Int_Tables_number   1
_chemical_formula_structural   LiF
_chemical_formula_sum   'Li23 F23'
_cell_volume   809.80631737
_cell_formula_units_Z   23
loop_
 _symmetry_equiv_pos_site_id
 _symmetry_equiv_pos_as_xyz
  1  'x, y, z'
loop_
 _atom_site_type_symbol
 _atom_site_label
 _atom_site_symmetry_multiplicity
 _atom_site_fract_x
 _atom_site_fract_y
 _atom_site_fract_z
 _atom_site_occupancy
  F  F0  1  0.05658832  0.63984851  0.78236742  1
  F  F1  1  -0.05658832  -0.63984851  0.78236742  1
  F  F2  1  -0.63984851  0.05658832  0.78236742  1
  F  F3  1  0.63984851  -0.05658832  0.78236742  1
  F  F4  1  -0.05658832  0.63984851  -0.78236742  1
  F  F5  1  0.05658832  -0.63984851  -0.78236742  1
  F  F6  1  0.63984851  0.05658832  -0.78236742  1
  F  F7  1  -0.63984851  -0.05658832  -0.78236742  1
  F  F8  1  -0.05658832  -0.63984851  -0.78236742  1
  F  F9  1  0.05658832  0.63984851  -0.78236742  1
  F  F10  1  0.63984851  -0.05658832  -0.78236742  1
  F  F11  1  -0.63984851  0.05658832  -0.78236742  1
  F  F12  1  0.05658832  -0.63984851  0.78236742  1
  F  F13  1  -0.05658832  0.63984851  0.78236742  1
  F  F14  1  -0.63984851  -0.05658832  0.78236742  1
  F  F15  1  0.63984851  0.05658832  0.78236742  1
  F  F16  1  0.38039664  0.38039664  0.00000000  1
  F  F17  1  0.61960336  0.61960336  0.00000000  1
  F  F18  1  0.61960336  0.38039664  0.00000000  1
  F  F19  1  0.38039664  0.61960336  0.00000000  1
  F  F20  1  0.00000000  0.00000000  0.00000000  1
  F  F21  1  0.50000000  0.50000000  0.00000000  1
  F  F22  1  0.00000000  0.00000000  0.50000000  1
  Li  Li23  1  0.22047899  0.50000000  0.50000000  1
  Li  Li24  1  0.77952101  0.50000000  0.50000000  1
  Li  Li25  1  0.50000000  0.22047899  0.50000000  1
  Li  Li26  1  0.50000000  0.77952101  0.50000000  1
  Li  Li27  1  0.00000000  0.00000000  0.71098276  1
  Li  Li28  1  0.00000000  0.00000000  0.28901724  1
  Li  Li29  1  0.74403788  0.74403788  0.73748252  1
  Li  Li30  1  0.25596212  0.25596212  0.73748252  1
  Li  Li31  1  0.25596212  0.74403788  0.73748252  1
  Li  Li32  1  0.74403788  0.25596212  0.73748252  1
  Li  Li33  1  0.25596212  0.74403788  0.26251748  1
  Li  Li34  1  0.74403788  0.25596212  0.26251748  1
  Li  Li35  1  0.74403788  0.74403788  0.26251748  1
  Li  Li36  1  0.25596212  0.25596212  0.26251748  1
  Li  Li37  1  0.77742541  0.77742541  0.50000000  1
  Li  Li38  1  0.22257459  0.22257459  0.50000000  1
  Li  Li39  1  0.22257459  0.77742541  0.50000000  1
  Li  Li40  1  0.77742541  0.22257459  0.50000000  1
  Li  Li41  1  0.50000000  0.50000000  0.50000000  1
  Li  Li42  1  0.32057175  0.00000000  0.50000000  1
  Li  Li43  1  0.67942825  0.00000000  0.50000000  1
  Li  Li44  1  0.00000000  0.32057175  0.50000000  1
  Li  Li45  1  0.00000000  0.67942825  0.50000000  1
