# generated using pymatgen
data_LiF
_symmetry_space_group_name_H-M   'P 1'
_cell_length_a   8.91206662
_cell_length_b   8.91206662
_cell_length_c   22.57144067
_cell_angle_alpha   90.00000000
_cell_angle_beta   90.00000000
_cell_angle_gamma   120.00000000
_symmetry_Int_Tables_number   1
_chemical_formula_structural   LiF
_chemical_formula_sum   'Li78 F78'
_cell_volume   1552.55416168
_cell_formula_units_Z   78
loop_
 _symmetry_equiv_pos_site_id
 _symmetry_equiv_pos_as_xyz
  1  'x, y, z'
loop_
 _atom_site_type_symbol
 _atom_site_label
 _atom_site_symmetry_multiplicity
 _atom_site_fract_x
 _atom_site_fract_y
 _atom_site_fract_z
 _atom_site_occupancy
  F  F0  1  0.19478205  0.16733908  0.07899495  1
  F  F1  1  0.83266092  0.02744297  0.07899495  1
  F  F2  1  0.97255703  0.80521795  0.07899495  1
  F  F3  1  0.83266092  0.80521795  0.92100505  1
  F  F4  1  0.97255703  0.16733908  0.92100505  1
  F  F5  1  0.19478205  0.02744297  0.92100505  1
  F  F6  1  0.81988465  0.18011535  0.00000000  1
  F  F7  1  0.81988465  0.63976931  0.00000000  1
  F  F8  1  0.36023069  0.18011535  0.00000000  1
  F  F9  1  0.63086589  0.84278702  0.56372173  1
  F  F10  1  0.15721298  0.78807886  0.56372173  1
  F  F11  1  0.21192114  0.36913411  0.56372173  1
  F  F12  1  0.15721298  0.36913411  0.43627827  1
  F  F13  1  0.21192114  0.84278702  0.43627827  1
  F  F14  1  0.63086589  0.78807886  0.43627827  1
  F  F15  1  0.26437401  0.24413272  0.55099159  1
  F  F16  1  0.75586728  0.02024129  0.55099159  1
  F  F17  1  0.97975871  0.73562599  0.55099159  1
  F  F18  1  0.75586728  0.73562599  0.44900841  1
  F  F19  1  0.97975871  0.24413272  0.44900841  1
  F  F20  1  0.26437401  0.02024129  0.44900841  1
  F  F21  1  0.35261185  0.61972651  0.17386854  1
  F  F22  1  0.38027349  0.73288534  0.17386854  1
  F  F23  1  0.26711466  0.64738815  0.17386854  1
  F  F24  1  0.38027349  0.64738815  0.82613146  1
  F  F25  1  0.26711466  0.61972651  0.82613146  1
  F  F26  1  0.35261185  0.73288534  0.82613146  1
  F  F27  1  0.23886180  0.26830167  0.93922315  1
  F  F28  1  0.73169833  0.97056014  0.93922315  1
  F  F29  1  0.02943986  0.76113820  0.93922315  1
  F  F30  1  0.73169833  0.76113820  0.06077685  1
  F  F31  1  0.02943986  0.26830167  0.06077685  1
  F  F32  1  0.23886180  0.97056014  0.06077685  1
  F  F33  1  0.90568182  0.14999462  0.01118706  1
  F  F34  1  0.85000538  0.75568720  0.01118706  1
  F  F35  1  0.24431280  0.09431818  0.01118706  1
  F  F36  1  0.85000538  0.09431818  0.98881294  1
  F  F37  1  0.24431280  0.14999462  0.98881294  1
  F  F38  1  0.90568182  0.75568720  0.98881294  1
  F  F39  1  0.51128211  0.37281910  0.50465254  1
  F  F40  1  0.62718090  0.13846301  0.50465254  1
  F  F41  1  0.86153699  0.48871789  0.50465254  1
  F  F42  1  0.62718090  0.48871789  0.49534746  1
  F  F43  1  0.86153699  0.37281910  0.49534746  1
  F  F44  1  0.51128211  0.13846301  0.49534746  1
  F  F45  1  0.47892300  0.85344667  0.06265048  1
  F  F46  1  0.14655333  0.62547633  0.06265048  1
  F  F47  1  0.37452367  0.52107700  0.06265048  1
  F  F48  1  0.14655333  0.52107700  0.93734952  1
  F  F49  1  0.37452367  0.85344667  0.93734952  1
  F  F50  1  0.47892300  0.62547633  0.93734952  1
  F  F51  1  0.62618632  0.50181647  0.80882695  1
  F  F52  1  0.49818353  0.12436984  0.80882695  1
  F  F53  1  0.87563016  0.37381368  0.80882695  1
  F  F54  1  0.49818353  0.37381368  0.19117305  1
  F  F55  1  0.87563016  0.50181647  0.19117305  1
  F  F56  1  0.62618632  0.12436984  0.19117305  1
  F  F57  1  0.84670354  0.43487868  0.90704999  1
  F  F58  1  0.56512132  0.41182487  0.90704999  1
  F  F59  1  0.58817513  0.15329646  0.90704999  1
  F  F60  1  0.56512132  0.15329646  0.09295001  1
  F  F61  1  0.58817513  0.43487868  0.09295001  1
  F  F62  1  0.84670354  0.41182487  0.09295001  1
  F  F63  1  0.34549261  0.57699957  0.27565187  1
  F  F64  1  0.42300043  0.76849304  0.27565187  1
  F  F65  1  0.23150696  0.65450739  0.27565187  1
  F  F66  1  0.42300043  0.65450739  0.72434813  1
  F  F67  1  0.23150696  0.57699957  0.72434813  1
  F  F68  1  0.34549261  0.76849304  0.72434813  1
  F  F69  1  0.33559169  0.54112586  0.09722043  1
  F  F70  1  0.45887414  0.79446583  0.09722043  1
  F  F71  1  0.20553417  0.66440831  0.09722043  1
  F  F72  1  0.45887414  0.66440831  0.90277957  1
  F  F73  1  0.20553417  0.54112586  0.90277957  1
  F  F74  1  0.33559169  0.79446583  0.90277957  1
  F  F75  1  0.22277623  0.77722377  -0.00000000  1
  F  F76  1  0.22277623  0.44555245  0.00000000  1
  F  F77  1  0.55444755  0.77722377  0.00000000  1
  Li  Li78  1  0.12127344  0.33736197  0.62220628  1
  Li  Li79  1  -0.33736197  -0.21608854  0.62220628  1
  Li  Li80  1  0.21608854  -0.12127344  0.62220628  1
  Li  Li81  1  -0.33736197  -0.12127344  -0.62220628  1
  Li  Li82  1  0.21608854  0.33736197  -0.62220628  1
  Li  Li83  1  0.12127344  -0.21608854  -0.62220628  1
  Li  Li84  1  0.38504499  0.87331849  0.56113786  1
  Li  Li85  1  0.12668151  0.51172650  0.56113786  1
  Li  Li86  1  0.48827350  0.61495501  0.56113786  1
  Li  Li87  1  0.12668151  0.61495501  0.43886214  1
  Li  Li88  1  0.48827350  0.87331849  0.43886214  1
  Li  Li89  1  0.38504499  0.51172650  0.43886214  1
  Li  Li90  1  0.88468329  0.05557860  0.43967818  1
  Li  Li91  1  0.94442140  0.82910469  0.43967818  1
  Li  Li92  1  0.17089531  0.11531671  0.43967818  1
  Li  Li93  1  0.94442140  0.11531671  0.56032182  1
  Li  Li94  1  0.17089531  0.05557860  0.56032182  1
  Li  Li95  1  0.88468329  0.82910469  0.56032182  1
  Li  Li96  1  0.66666667  0.33333333  0.00000000  1
  Li  Li97  1  0.33333333  0.66666667  0.00000000  1
  Li  Li98  1  0.00000000  0.00000000  0.00000000  1
  Li  Li99  1  0.81646529  0.12196738  0.17023336  1
  Li  Li100  1  0.87803262  0.69449790  0.17023336  1
  Li  Li101  1  0.30550210  0.18353471  0.17023336  1
  Li  Li102  1  0.87803262  0.18353471  0.82976664  1
  Li  Li103  1  0.30550210  0.12196738  0.82976664  1
  Li  Li104  1  0.81646529  0.69449790  0.82976664  1
  Li  Li105  1  0.18824548  0.94435498  0.13037581  1
  Li  Li106  1  0.05564502  0.24389050  0.13037581  1
  Li  Li107  1  0.75610950  0.81175452  0.13037581  1
  Li  Li108  1  0.05564502  0.81175452  0.86962419  1
  Li  Li109  1  0.75610950  0.94435498  0.86962419  1
  Li  Li110  1  0.18824548  0.24389050  0.86962419  1
  Li  Li111  1  0.73922469  0.09649981  0.93620037  1
  Li  Li112  1  0.90350019  0.64272488  0.93620037  1
  Li  Li113  1  0.35727512  0.26077531  0.93620037  1
  Li  Li114  1  0.90350019  0.26077531  0.06379963  1
  Li  Li115  1  0.35727512  0.09649981  0.06379963  1
  Li  Li116  1  0.73922469  0.64272488  0.06379963  1
  Li  Li117  1  0.66666667  0.33333333  0.50000000  1
  Li  Li118  1  0.12279771  0.87720229  0.50000000  1
  Li  Li119  1  0.12279771  0.24559543  0.50000000  1
  Li  Li120  1  0.75440457  0.87720229  0.50000000  1
  Li  Li121  1  0.27758155  0.43490738  0.65930539  1
  Li  Li122  1  0.56509262  0.84267417  0.65930539  1
  Li  Li123  1  0.15732583  0.72241845  0.65930539  1
  Li  Li124  1  0.56509262  0.72241845  0.34069461  1
  Li  Li125  1  0.15732583  0.43490738  0.34069461  1
  Li  Li126  1  0.27758155  0.84267417  0.34069461  1
  Li  Li127  1  0.89718402  0.48688584  0.26466698  1
  Li  Li128  1  0.51311416  0.41029818  0.26466698  1
  Li  Li129  1  0.58970182  0.10281598  0.26466698  1
  Li  Li130  1  0.51311416  0.10281598  0.73533302  1
  Li  Li131  1  0.58970182  0.48688584  0.73533302  1
  Li  Li132  1  0.89718402  0.41029818  0.73533302  1
  Li  Li133  1  0.66666667  0.33333333  0.32303895  1
  Li  Li134  1  0.66666667  0.33333333  0.67696105  1
  Li  Li135  1  0.66666667  0.33333333  0.16475457  1
  Li  Li136  1  0.66666667  0.33333333  0.83524543  1
  Li  Li137  1  0.52212602  0.72120599  0.28018677  1
  Li  Li138  1  0.27879401  0.80092003  0.28018677  1
  Li  Li139  1  0.19907997  0.47787398  0.28018677  1
  Li  Li140  1  0.27879401  0.47787398  0.71981323  1
  Li  Li141  1  0.19907997  0.72120599  0.71981323  1
  Li  Li142  1  0.52212602  0.80092003  0.71981323  1
  Li  Li143  1  0.00000000  0.00000000  0.58034538  1
  Li  Li144  1  0.00000000  0.00000000  0.41965462  1
  Li  Li145  1  0.50884340  0.49115660  0.50000000  1
  Li  Li146  1  0.50884340  0.01768680  0.50000000  1
  Li  Li147  1  0.98231320  0.49115660  0.50000000  1
  Li  Li148  1  0.00000000  0.00000000  0.50000000  1
  Li  Li149  1  0.16356038  0.91949499  0.24457130  1
  Li  Li150  1  0.08050501  0.24406540  0.24457130  1
  Li  Li151  1  0.75593460  0.83643962  0.24457130  1
  Li  Li152  1  0.08050501  0.83643962  0.75542870  1
  Li  Li153  1  0.75593460  0.91949499  0.75542870  1
  Li  Li154  1  0.16356038  0.24406540  0.75542870  1
  Li  Li155  1  0.33333333  0.66666667  0.50000000  1
