# generated using pymatgen
data_Li3ErI6
_symmetry_space_group_name_H-M   'P 1'
_cell_length_a   7.41300000
_cell_length_b   12.83800000
_cell_length_c   14.20000000
_cell_angle_alpha   90.00000000
_cell_angle_beta   100.01000000
_cell_angle_gamma   90.00000000
_symmetry_Int_Tables_number   1
_chemical_formula_structural   Li3ErI6
_chemical_formula_sum   'Li12 Er4 I24'
_cell_volume   1330.81535352
_cell_formula_units_Z   4
loop_
 _symmetry_equiv_pos_site_id
 _symmetry_equiv_pos_as_xyz
  1  'x, y, z'
loop_
 _atom_site_type_symbol
 _atom_site_label
 _atom_site_symmetry_multiplicity
 _atom_site_fract_x
 _atom_site_fract_y
 _atom_site_fract_z
 _atom_site_occupancy
  Li  Li0  1  0.62545988  0.95071431  0.26800606  1
  Li  Li1  1  0.40134152  0.15601864  0.84400548  1
  Li  Li2  1  0.94191639  0.86617615  0.39888499  1
  Li  Li3  1  0.29192742  0.02058449  0.03009015  1
  Li  Li4  1  0.16755736  0.21233911  0.81817503  1
  Li  Li5  1  0.81659549  0.30424224  0.47524357  1
  Li  Li6  1  0.56805498  0.29122914  0.38814711  1
  Li  Li7  1  0.86050614  0.29214465  0.63363816  1
  Li  Li8  1  0.54393002  0.78517596  0.80032622  1
  Li  Li9  1  0.48576556  0.59241457  0.95354959  1
  Li  Li10  1  0.39245515  0.17052412  0.93494841  1
  Li  Li11  1  0.05111446  0.96563203  0.19160265  1
  Er  Er12  1  0.69538623  0.09767211  0.31576697  1
  Er  Er13  1  0.55984751  0.12203823  0.50482309  1
  Er  Er14  1  0.96561148  0.90932040  0.74122002  1
  Er  Er15  1  0.33747772  0.31171108  0.47993198  1
  I  I16  1  0.45328972  0.18485446  0.03041537  1
  I  I17  1  0.22486718  0.93949894  0.10517265  1
  I  I18  1  0.40210002  0.92187424  0.91150750  1
  I  I19  1  0.80401714  0.04522729  0.67466967  1
  I  I20  1  0.61132271  0.27134903  0.17126249  1
  I  I21  1  0.64324667  0.28093451  0.45730392  1
  I  I22  1  0.85907578  0.80219698  0.92544936  1
  I  I23  1  0.01311306  0.77224477  0.80128432  1
  I  I24  1  0.99447788  0.81546143  0.29314266  1
  I  I25  1  0.27099283  0.77127035  0.92595535  1
  I  I26  1  0.64153427  0.11586906  0.13689657  1
  I  I27  1  0.37670187  0.33089802  0.93644165  1
  I  I28  1  0.68901768  0.32518332  0.27039382  1
  I  I29  1  0.36244253  0.88721274  0.52778507  1
  I  I30  1  0.88040575  0.71324479  0.23921495  1
  I  I31  1  0.43872280  0.77096718  0.50620440  1
  I  I32  1  0.47726717  0.42754102  0.97458087  1
  I  I33  1  0.89210857  0.03142919  0.36358959  1
  I  I34  1  0.68564402  0.50857069  0.09243353  1
  I  I35  1  0.75070777  0.41038292  0.24444886  1
  I  I36  1  0.77120183  0.07697991  0.71024855  1
  I  I37  1  0.83877871  0.92969765  0.19187962  1
  I  I38  1  0.36659624  0.87146059  0.19632792  1
  I  I39  1  0.81342994  0.89255900  0.46065776  1
