# generated using pymatgen
data_Li4SnSeS3
_symmetry_space_group_name_H-M   'P 1'
_cell_length_a   6.46112000
_cell_length_b   8.07139000
_cell_length_c   14.09340000
_cell_angle_alpha   90.00000000
_cell_angle_beta   90.00000000
_cell_angle_gamma   90.00000000
_symmetry_Int_Tables_number   1
_chemical_formula_structural   Li4SnSeS3
_chemical_formula_sum   'Li16 Sn4 Se4 S12'
_cell_volume   734.97390148
_cell_formula_units_Z   4
loop_
 _symmetry_equiv_pos_site_id
 _symmetry_equiv_pos_as_xyz
  1  'x, y, z'
loop_
 _atom_site_type_symbol
 _atom_site_label
 _atom_site_symmetry_multiplicity
 _atom_site_fract_x
 _atom_site_fract_y
 _atom_site_fract_z
 _atom_site_occupancy
  Li  Li0  1  0.26800606  0.04928569  0.62545988  1
  Li  Li1  1  0.84400548  0.84398136  0.40134152  1
  Li  Li2  1  0.39888499  0.13382385  0.94191639  1
  Li  Li3  1  0.03009015  0.97941551  0.29192742  1
  Li  Li4  1  0.81817503  0.78766089  0.16755736  1
  Li  Li5  1  0.47524357  0.69575776  0.81659549  1
  Li  Li6  1  0.38814711  0.70877086  0.56805498  1
  Li  Li7  1  0.63363816  0.70785535  0.86050614  1
  Li  Li8  1  0.80032622  0.21482404  0.54393002  1
  Li  Li9  1  0.95354959  0.40758543  0.48576556  1
  Li  Li10  1  0.93494841  0.82947588  0.39245515  1
  Li  Li11  1  0.19160265  0.03436797  0.05111446  1
  Li  Li12  1  0.31576697  0.90232789  0.69538623  1
  Li  Li13  1  0.50482309  0.87796177  0.55984751  1
  Li  Li14  1  0.74122002  0.09067960  0.96561148  1
  Li  Li15  1  0.47993198  0.68828892  0.33747772  1
  Sn  Sn16  1  0.03041537  0.81514554  0.45328972  1
  Sn  Sn17  1  0.10517265  0.06050106  0.22486718  1
  Sn  Sn18  1  0.91150750  0.07812576  0.40210002  1
  Sn  Sn19  1  0.67466967  0.95477271  0.80401714  1
  Se  Se20  1  0.97458087  0.57245898  0.47726717  1
  Se  Se21  1  0.36358959  0.96857081  0.89210857  1
  Se  Se22  1  0.09243353  0.49142931  0.68564402  1
  Se  Se23  1  0.24444886  0.58961708  0.75070777  1
  S  S24  1  0.17126249  0.72865097  0.61132271  1
  S  S25  1  0.45730392  0.71906549  0.64324667  1
  S  S26  1  0.92544936  0.19780302  0.85907578  1
  S  S27  1  0.80128432  0.22775523  0.01311306  1
  S  S28  1  0.29314266  0.18453857  0.99447788  1
  S  S29  1  0.92595535  0.22872965  0.27099283  1
  S  S30  1  0.13689657  0.88413094  0.64153427  1
  S  S31  1  0.93644165  0.66910198  0.37670187  1
  S  S32  1  0.27039382  0.67481668  0.68901768  1
  S  S33  1  0.52778507  0.11278726  0.36244253  1
  S  S34  1  0.23921495  0.28675521  0.88040575  1
  S  S35  1  0.50620440  0.22903282  0.43872280  1
