# generated using pymatgen
data_Li2AlGa(GeO4)2
_symmetry_space_group_name_H-M   'P 1'
_cell_length_a   9.25600000
_cell_length_b   13.86700000
_cell_length_c   13.86700000
_cell_angle_alpha   120.00000000
_cell_angle_beta   90.00000000
_cell_angle_gamma   90.00000000
_symmetry_Int_Tables_number   1
_chemical_formula_structural   Li2AlGa(GeO4)2
_chemical_formula_sum   'Li18 Al9 Ga9 Ge18 O72'
_cell_volume   1541.41296919
_cell_formula_units_Z   9
loop_
 _symmetry_equiv_pos_site_id
 _symmetry_equiv_pos_as_xyz
  1  'x, y, z'
loop_
 _atom_site_type_symbol
 _atom_site_label
 _atom_site_symmetry_multiplicity
 _atom_site_fract_x
 _atom_site_fract_y
 _atom_site_fract_z
 _atom_site_occupancy
  Li  Li0  1  0.73199394  0.62545988  0.04928569  1
  Li  Li1  1  0.15599452  0.40134152  0.84398136  1
  Li  Li2  1  0.60111501  0.94191639  0.13382385  1
  Li  Li3  1  0.96990985  0.29192742  0.97941551  1
  Li  Li4  1  0.18182497  0.16755736  0.78766089  1
  Li  Li5  1  0.52475643  0.81659549  0.69575776  1
  Li  Li6  1  0.61185289  0.56805498  0.70877086  1
  Li  Li7  1  0.36636184  0.86050614  0.70785535  1
  Li  Li8  1  0.19967378  0.54393002  0.21482404  1
  Li  Li9  1  0.04645041  0.48576556  0.40758543  1
  Li  Li10  1  0.06505159  0.39245515  0.82947588  1
  Li  Li11  1  0.80839735  0.05111446  0.03436797  1
  Li  Li12  1  0.68423303  0.69538623  0.90232789  1
  Li  Li13  1  0.49517691  0.55984751  0.87796177  1
  Li  Li14  1  0.25877998  0.96561148  0.09067960  1
  Li  Li15  1  0.52006802  0.33747772  0.68828892  1
  Li  Li16  1  0.96958463  0.45328972  0.81514554  1
  Li  Li17  1  0.89482735  0.22486718  0.06050106  1
  Al  Al18  1  0.06355835  0.37670187  0.66910198  1
  Al  Al19  1  0.72960618  0.68901768  0.67481668  1
  Al  Al20  1  0.47221493  0.36244253  0.11278726  1
  Al  Al21  1  0.76078505  0.88040575  0.28675521  1
  Al  Al22  1  0.49379560  0.43872280  0.22903282  1
  Al  Al23  1  0.02541913  0.47726717  0.57245898  1
  Al  Al24  1  0.63641041  0.89210857  0.96857081  1
  Al  Al25  1  0.90756647  0.68564402  0.49142931  1
  Al  Al26  1  0.75555114  0.75070777  0.58961708  1
  Ga  Ga27  1  0.08849250  0.40210002  0.07812576  1
  Ga  Ga28  1  0.32533033  0.80401714  0.95477271  1
  Ga  Ga29  1  0.82873751  0.61132271  0.72865097  1
  Ga  Ga30  1  0.54269608  0.64324667  0.71906549  1
  Ga  Ga31  1  0.07455064  0.85907578  0.19780302  1
  Ga  Ga32  1  0.19871568  0.01311306  0.22775523  1
  Ga  Ga33  1  0.70685734  0.99447788  0.18453857  1
  Ga  Ga34  1  0.07404465  0.27099283  0.22872965  1
  Ga  Ga35  1  0.86310343  0.64153427  0.88413094  1
  Ge  Ge36  1  0.28975145  0.77120183  0.92302009  1
  Ge  Ge37  1  0.80812038  0.83877871  0.07030235  1
  Ge  Ge38  1  0.80367208  0.36659624  0.12853941  1
  Ge  Ge39  1  0.53934224  0.81342994  0.10744100  1
  Ge  Ge40  1  0.31800347  0.19255984  0.10390870  1
  Ge  Ge41  1  0.42710779  0.88994808  0.77206484  1
  Ge  Ge42  1  0.00695213  0.18198523  0.13926942  1
  Ge  Ge43  1  0.22210781  0.48925270  0.58258900  1
  Ge  Ge44  1  0.94290970  0.88013463  0.66238483  1
  Ge  Ge45  1  0.70301896  0.67679707  0.48120938  1
  Ge  Ge46  1  0.96244729  0.63637040  0.02821792  1
  Ge  Ge47  1  0.30087831  0.74821770  0.50275149  1
  Ge  Ge48  1  0.60956433  0.71515951  0.96311305  1
  Ge  Ge49  1  0.27864646  0.49732098  0.94852125  1
  Ge  Ge50  1  0.14489487  0.09173411  0.76043811  1
  Ge  Ge51  1  0.24205527  0.51054724  0.01434955  1
  Ge  Ge52  1  0.23763754  0.32786445  0.23838038  1
  Ge  Ge53  1  0.63230583  0.27178365  0.63221687  1
  O  O54  1  0.09028977  0.36647029  0.46422532  1
  O  O55  1  0.18651851  0.16469750  0.67921994  1
  O  O56  1  0.67756436  0.95922486  0.40910706  1
  O  O57  1  0.22649578  0.98341217  0.48790694  1
  O  O58  1  0.69093774  0.35482721  0.82563357  1
  O  O59  1  0.13752094  0.61326465  0.06327001  1
  O  O60  1  0.92469362  0.65893365  0.88652648  1
  O  O61  1  0.65998405  0.12266065  0.74205837  1
  O  O62  1  0.52965058  0.18277780  0.44479919  1
  O  O63  1  0.89721576  0.75814771  0.90689723  1
  O  O64  1  0.33902979  0.09958194  0.36689854  1
  O  O65  1  0.89711026  0.65079043  0.27404432  1
  O  O66  1  0.64203165  0.11291358  0.22012445  1
  O  O67  1  0.89855419  0.91586004  0.83837129  1
  O  O68  1  0.10147154  0.39357094  0.99080295  1
  O  O69  1  0.16080805  0.33649823  0.99493842  1
  O  O70  1  0.65196126  0.45126621  0.30810480  1
  O  O71  1  0.23724909  0.77573069  0.28782078  1
  O  O72  1  0.64963290  0.67460030  0.25350859  1
  O  O73  1  0.56830860  0.15077659  0.34238711  1
  O  O74  1  0.26520237  0.90632523  0.63228420  1
  O  O75  1  0.39309772  0.75601036  0.02698945  1
  O  O76  1  0.79481130  0.10795344  0.36886137  1
  O  O77  1  0.49251769  0.49736291  0.42309612  1
  O  O78  1  0.28077236  0.80475701  0.27754788  1
  O  O79  1  0.17711068  0.97568403  0.35452770  1
  O  O80  1  0.91486439  0.05954142  0.04607142  1
  O  O81  1  0.92831856  0.62984130  0.98454338  1
  O  O82  1  0.96361998  0.57181585  0.03334518  1
  O  O83  1  0.38509773  0.14699054  0.70555111  1
  O  O84  1  0.16949275  0.14886333  0.68307799  1
  O  O85  1  0.69602980  0.44319874  0.06384523  1
  O  O86  1  0.61500723  0.42993883  0.90282351  1
  O  O87  1  0.51832965  0.00994615  0.85991598  1
  O  O88  1  0.69701574  0.12262693  0.25923138  1
  O  O89  1  0.29359184  0.29751592  0.64050885  1
  O  O90  1  0.86707232  0.19063884  0.18988661  1
  O  O91  1  0.50151629  0.08675945  0.48865760  1
  O  O92  1  0.70196688  0.20170482  0.35003607  1
  O  O93  1  0.33799516  0.20420733  0.10999466  1
  O  O94  1  0.57828014  0.62441705  0.90601806  1
  O  O95  1  0.54264463  0.96405773  0.53440198  1
  O  O96  1  0.03050025  0.71345875  0.40916674  1
  O  O97  1  0.36019064  0.96265181  0.17739944  1
  O  O98  1  0.76999355  0.87293949  0.47775674  1
  O  O99  1  0.08534746  0.78417897  0.37710952  1
  O  O100  1  0.54063512  0.94831828  0.46864537  1
  O  O101  1  0.97585208  0.36257010  0.27390867  1
  O  O102  1  0.79518619  0.48369965  0.67704353  1
  O  O103  1  0.07845638  0.72916775  0.56102858  1
  O  O104  1  0.83598012  0.97464926  0.03735159  1
  O  O105  1  0.17329432  0.30402579  0.59104706  1
  O  O106  1  0.54922666  0.84356296  0.74975710  1
  O  O107  1  0.27993390  0.28540408  0.33980262  1
  O  O108  1  0.55435405  0.04513472  0.26210308  1
  O  O109  1  0.24773099  0.38827925  0.58039994  1
  O  O110  1  0.01439349  0.64402732  0.24215389  1
  O  O111  1  0.04072880  0.88392736  0.95399736  1
  O  O112  1  0.47417383  0.14453942  0.29634214  1
  O  O113  1  0.47347177  0.90216584  0.50838412  1
  O  O114  1  0.39850473  0.82679813  0.56614835  1
  O  O115  1  0.04530401  0.38414990  0.36490635  1
  O  O116  1  0.50313626  0.62538739  0.37414008  1
  O  O117  1  0.16293443  0.14351016  0.34130637  1
  O  O118  1  0.02651131  0.92943125  0.35758072  1
  O  O119  1  0.57547418  0.41422442  0.05976976  1
  O  O120  1  0.45825289  0.61183007  0.35671178  1
  O  O121  1  0.38610264  0.45438321  0.05853519  1
  O  O122  1  0.19579113  0.03880944  0.09464936  1
  O  O123  1  0.01822183  0.93063870  0.89922200  1
  O  O124  1  0.07118865  0.90555704  0.31699323  1
  O  O125  1  0.02327194  0.68102437  0.15512469  1
