# generated using pymatgen
data_Li6PSeS4Br
_symmetry_space_group_name_H-M   'P 1'
_cell_length_a   10.05220000
_cell_length_b   10.05220000
_cell_length_c   10.05220000
_cell_angle_alpha   90.00000000
_cell_angle_beta   90.00000000
_cell_angle_gamma   90.00000000
_symmetry_Int_Tables_number   1
_chemical_formula_structural   Li6PSeS4Br
_chemical_formula_sum   'Li24 P4 Se4 S16 Br4'
_cell_volume   1015.74188744
_cell_formula_units_Z   4
loop_
 _symmetry_equiv_pos_site_id
 _symmetry_equiv_pos_as_xyz
  1  'x, y, z'
loop_
 _atom_site_type_symbol
 _atom_site_label
 _atom_site_symmetry_multiplicity
 _atom_site_fract_x
 _atom_site_fract_y
 _atom_site_fract_z
 _atom_site_occupancy
  Li  Li0  1  0.37454012  0.95071431  0.73199394  1
  Li  Li1  1  0.59865848  0.15601864  0.15599452  1
  Li  Li2  1  0.05808361  0.86617615  0.60111501  1
  Li  Li3  1  0.70807258  0.02058449  0.96990985  1
  Li  Li4  1  0.83244264  0.21233911  0.18182497  1
  Li  Li5  1  0.18340451  0.30424224  0.52475643  1
  Li  Li6  1  0.43194502  0.29122914  0.61185289  1
  Li  Li7  1  0.13949386  0.29214465  0.36636184  1
  Li  Li8  1  0.45606998  0.78517596  0.19967378  1
  Li  Li9  1  0.51423444  0.59241457  0.04645041  1
  Li  Li10  1  0.60754485  0.17052412  0.06505159  1
  Li  Li11  1  0.94888554  0.96563203  0.80839735  1
  Li  Li12  1  0.30461377  0.09767211  0.68423303  1
  Li  Li13  1  0.44015249  0.12203823  0.49517691  1
  Li  Li14  1  0.03438852  0.90932040  0.25877998  1
  Li  Li15  1  0.66252228  0.31171108  0.52006802  1
  Li  Li16  1  0.54671028  0.18485446  0.96958463  1
  Li  Li17  1  0.77513282  0.93949894  0.89482735  1
  Li  Li18  1  0.59789998  0.92187424  0.08849250  1
  Li  Li19  1  0.19598286  0.04522729  0.32533033  1
  Li  Li20  1  0.38867729  0.27134903  0.82873751  1
  Li  Li21  1  0.35675333  0.28093451  0.54269608  1
  Li  Li22  1  0.14092422  0.80219698  0.07455064  1
  Li  Li23  1  0.98688694  0.77224477  0.19871568  1
  P  P24  1  0.00552212  0.81546143  0.70685734  1
  P  P25  1  0.72900717  0.77127035  0.07404465  1
  P  P26  1  0.35846573  0.11586906  0.86310343  1
  P  P27  1  0.62329813  0.33089802  0.06355835  1
  Se  Se28  1  0.11986537  0.33761517  0.94290970  1
  Se  Se29  1  0.32320293  0.51879062  0.70301896  1
  Se  Se30  1  0.36362960  0.97178208  0.96244729  1
  Se  Se31  1  0.25178230  0.49724851  0.30087831  1
  S  S32  1  0.31098232  0.32518332  0.72960618  1
  S  S33  1  0.63755747  0.88721274  0.47221493  1
  S  S34  1  0.11959425  0.71324479  0.76078505  1
  S  S35  1  0.56127720  0.77096718  0.49379560  1
  S  S36  1  0.52273283  0.42754102  0.02541913  1
  S  S37  1  0.10789143  0.03142919  0.63641041  1
  S  S38  1  0.31435598  0.50857069  0.90756647  1
  S  S39  1  0.24929223  0.41038292  0.75555114  1
  S  S40  1  0.22879817  0.07697991  0.28975145  1
  S  S41  1  0.16122129  0.92969765  0.80812038  1
  S  S42  1  0.63340376  0.87146059  0.80367208  1
  S  S43  1  0.18657006  0.89255900  0.53934224  1
  S  S44  1  0.80744016  0.89609130  0.31800347  1
  S  S45  1  0.11005192  0.22793516  0.42710779  1
  S  S46  1  0.81801477  0.86073058  0.00695213  1
  S  S47  1  0.51074730  0.41741100  0.22210781  1
  Br  Br48  1  0.28484049  0.03688695  0.60956433  1
  Br  Br49  1  0.50267902  0.05147875  0.27864646  1
  Br  Br50  1  0.90826589  0.23956189  0.14489487  1
  Br  Br51  1  0.48945276  0.98565045  0.24205527  1
