# generated using pymatgen
data_LiH7C3NClO
_symmetry_space_group_name_H-M   'P 1'
_cell_length_a   5.83900000
_cell_length_b   6.39000000
_cell_length_c   15.96100000
_cell_angle_alpha   90.00000000
_cell_angle_beta   98.82600000
_cell_angle_gamma   90.00000000
_symmetry_Int_Tables_number   1
_chemical_formula_structural   LiH7C3NClO
_chemical_formula_sum   'Li4 H28 C12 N4 Cl4 O4'
_cell_volume   588.47253529
_cell_formula_units_Z   4
loop_
 _symmetry_equiv_pos_site_id
 _symmetry_equiv_pos_as_xyz
  1  'x, y, z'
loop_
 _atom_site_type_symbol
 _atom_site_label
 _atom_site_symmetry_multiplicity
 _atom_site_fract_x
 _atom_site_fract_y
 _atom_site_fract_z
 _atom_site_occupancy
  Li  Li0  1  0.62545988  0.95071431  0.26800606  1
  Li  Li1  1  0.40134152  0.15601864  0.84400548  1
  Li  Li2  1  0.94191639  0.86617615  0.39888499  1
  Li  Li3  1  0.29192742  0.02058449  0.03009015  1
  H  H4  1  0.61132271  0.27134903  0.17126249  1
  H  H5  1  0.64324667  0.28093451  0.45730392  1
  H  H6  1  0.85907578  0.80219698  0.92544936  1
  H  H7  1  0.01311306  0.77224477  0.80128432  1
  H  H8  1  0.99447788  0.81546143  0.29314266  1
  H  H9  1  0.27099283  0.77127035  0.92595535  1
  H  H10  1  0.64153427  0.11586906  0.13689657  1
  H  H11  1  0.37670187  0.33089802  0.93644165  1
  H  H12  1  0.68901768  0.32518332  0.27039382  1
  H  H13  1  0.36244253  0.88721274  0.52778507  1
  H  H14  1  0.88040575  0.71324479  0.23921495  1
  H  H15  1  0.43872280  0.77096718  0.50620440  1
  H  H16  1  0.47726717  0.42754102  0.97458087  1
  H  H17  1  0.89210857  0.03142919  0.36358959  1
  H  H18  1  0.68564402  0.50857069  0.09243353  1
  H  H19  1  0.75070777  0.41038292  0.24444886  1
  H  H20  1  0.77120183  0.07697991  0.71024855  1
  H  H21  1  0.83877871  0.92969765  0.19187962  1
  H  H22  1  0.36659624  0.87146059  0.19632792  1
  H  H23  1  0.81342994  0.89255900  0.46065776  1
  H  H24  1  0.19255984  0.89609130  0.68199653  1
  H  H25  1  0.88994808  0.22793516  0.57289221  1
  H  H26  1  0.18198523  0.86073058  0.99304787  1
  H  H27  1  0.48925270  0.41741100  0.77789219  1
  H  H28  1  0.88013463  0.33761517  0.05709030  1
  H  H29  1  0.67679707  0.51879062  0.29698104  1
  H  H30  1  0.63637040  0.97178208  0.03755271  1
  H  H31  1  0.74821770  0.49724851  0.69912169  1
  C  C32  1  0.54393002  0.78517596  0.80032622  1
  C  C33  1  0.48576556  0.59241457  0.95354959  1
  C  C34  1  0.39245515  0.17052412  0.93494841  1
  C  C35  1  0.05111446  0.96563203  0.19160265  1
  C  C36  1  0.69538623  0.09767211  0.31576697  1
  C  C37  1  0.55984751  0.12203823  0.50482309  1
  C  C38  1  0.96561148  0.90932040  0.74122002  1
  C  C39  1  0.33747772  0.31171108  0.47993198  1
  C  C40  1  0.45328972  0.18485446  0.03041537  1
  C  C41  1  0.22486718  0.93949894  0.10517265  1
  C  C42  1  0.40210002  0.92187424  0.91150750  1
  C  C43  1  0.80401714  0.04522729  0.67466967  1
  N  N44  1  0.71515951  0.03688695  0.39043567  1
  N  N45  1  0.49732098  0.05147875  0.72135354  1
  N  N46  1  0.09173411  0.23956189  0.85510513  1
  N  N47  1  0.51054724  0.98565045  0.75794473  1
  Cl  Cl48  1  0.16755736  0.21233911  0.81817503  1
  Cl  Cl49  1  0.81659549  0.30424224  0.47524357  1
  Cl  Cl50  1  0.56805498  0.29122914  0.38814711  1
  Cl  Cl51  1  0.86050614  0.29214465  0.63363816  1
  O  O52  1  0.32786445  0.76161962  0.76236246  1
  O  O53  1  0.27178365  0.36778313  0.36769417  1
  O  O54  1  0.36647029  0.53577468  0.90971023  1
  O  O55  1  0.16469750  0.32078006  0.81348149  1
