# generated using pymatgen
data_Li7ZnGa(PO4)4
_symmetry_space_group_name_H-M   'P 1'
_cell_length_a   4.93588000
_cell_length_b   6.51080000
_cell_length_c   10.08920000
_cell_angle_alpha   90.00000000
_cell_angle_beta   90.00000000
_cell_angle_gamma   90.00000000
_symmetry_Int_Tables_number   1
_chemical_formula_structural   Li7ZnGa(PO4)4
_chemical_formula_sum   'Li7 Zn1 Ga1 P4 O16'
_cell_volume   324.23185329
_cell_formula_units_Z   1
loop_
 _symmetry_equiv_pos_site_id
 _symmetry_equiv_pos_as_xyz
  1  'x, y, z'
loop_
 _atom_site_type_symbol
 _atom_site_label
 _atom_site_symmetry_multiplicity
 _atom_site_fract_x
 _atom_site_fract_y
 _atom_site_fract_z
 _atom_site_occupancy
  Li  Li0  1  0.26800606  0.04928569  0.62545988  1
  Li  Li1  1  0.84400548  0.84398136  0.40134152  1
  Li  Li2  1  0.39888499  0.13382385  0.94191639  1
  Li  Li3  1  0.03009015  0.97941551  0.29192742  1
  Li  Li4  1  0.81817503  0.78766089  0.16755736  1
  Li  Li5  1  0.47524357  0.69575776  0.81659549  1
  Li  Li6  1  0.38814711  0.70877086  0.56805498  1
  Zn  Zn7  1  0.63363816  0.70785535  0.86050614  1
  Ga  Ga8  1  0.80032622  0.21482404  0.54393002  1
  P  P9  1  0.95354959  0.40758543  0.48576556  1
  P  P10  1  0.93494841  0.82947588  0.39245515  1
  P  P11  1  0.19160265  0.03436797  0.05111446  1
  P  P12  1  0.31576697  0.90232789  0.69538623  1
  O  O13  1  0.50482309  0.87796177  0.55984751  1
  O  O14  1  0.74122002  0.09067960  0.96561148  1
  O  O15  1  0.47993198  0.68828892  0.33747772  1
  O  O16  1  0.03041537  0.81514554  0.45328972  1
  O  O17  1  0.10517265  0.06050106  0.22486718  1
  O  O18  1  0.91150750  0.07812576  0.40210002  1
  O  O19  1  0.67466967  0.95477271  0.80401714  1
  O  O20  1  0.17126249  0.72865097  0.61132271  1
  O  O21  1  0.45730392  0.71906549  0.64324667  1
  O  O22  1  0.92544936  0.19780302  0.85907578  1
  O  O23  1  0.80128432  0.22775523  0.01311306  1
  O  O24  1  0.29314266  0.18453857  0.99447788  1
  O  O25  1  0.92595535  0.22872965  0.27099283  1
  O  O26  1  0.13689657  0.88413094  0.64153427  1
  O  O27  1  0.93644165  0.66910198  0.37670187  1
  O  O28  1  0.27039382  0.67481668  0.68901768  1
