# generated using pymatgen
data_LiGd(PO3)4
_symmetry_space_group_name_H-M   C2/c
_cell_length_a   16.38600000
_cell_length_b   7.05900000
_cell_length_c   9.67700000
_cell_angle_alpha   90.00000000
_cell_angle_beta   126.12000000
_cell_angle_gamma   90.00000000
_symmetry_Int_Tables_number   15
_chemical_formula_structural   LiGd(PO3)4
_chemical_formula_sum   'Li4 Gd4 P16 O48'
_cell_volume   904.17440623
_cell_formula_units_Z   4
loop_
 _symmetry_equiv_pos_site_id
 _symmetry_equiv_pos_as_xyz
  1  'x, y, z'
  2  '-x, -y, -z'
  3  '-x, y, -z+1/2'
  4  'x, -y, z+1/2'
  5  'x+1/2, y+1/2, z'
  6  '-x+1/2, -y+1/2, -z'
  7  '-x+1/2, y+1/2, -z+1/2'
  8  'x+1/2, -y+1/2, z+1/2'
loop_
 _atom_site_type_symbol
 _atom_site_label
 _atom_site_symmetry_multiplicity
 _atom_site_fract_x
 _atom_site_fract_y
 _atom_site_fract_z
 _atom_site_occupancy
  Li  Li0  4  0.00000000  0.20594080  0.25000000  1.0
  Gd  Gd1  4  0.00000000  0.28530718  0.75000000  1.0
  P  P2  8  0.12197467  0.06121263  0.17716689  1.0
  P  P3  8  0.13856300  0.35276195  0.60188150  1.0
  O  O4  8  0.06317304  0.43246830  0.41729935  1.0
  O  O5  8  0.06834519  0.01967925  0.70084360  1.0
  O  O6  8  0.11030356  0.22515471  0.04565528  1.0
  O  O7  8  0.14951582  0.40709220  0.73093712  1.0
  O  O8  8  0.16011972  0.86497027  0.08455120  1.0
  O  O9  8  0.23436525  0.06960330  0.36181107  1.0
