# generated using pymatgen
data_Li7Zn(PO4)4
_symmetry_space_group_name_H-M   'P 1'
_cell_length_a   4.93910000
_cell_length_b   6.48030000
_cell_length_c   10.14680000
_cell_angle_alpha   90.00000000
_cell_angle_beta   90.00000000
_cell_angle_gamma   90.00000000
_symmetry_Int_Tables_number   1
_chemical_formula_structural   Li7Zn(PO4)4
_chemical_formula_sum   'Li7 Zn1 P4 O16'
_cell_volume   324.76710284
_cell_formula_units_Z   1
loop_
 _symmetry_equiv_pos_site_id
 _symmetry_equiv_pos_as_xyz
  1  'x, y, z'
loop_
 _atom_site_type_symbol
 _atom_site_label
 _atom_site_symmetry_multiplicity
 _atom_site_fract_x
 _atom_site_fract_y
 _atom_site_fract_z
 _atom_site_occupancy
  Li  Li0  1  0.37454012  0.95071431  0.73199394  1
  Li  Li1  1  0.59865848  0.15601864  0.15599452  1
  Li  Li2  1  0.05808361  0.86617615  0.60111501  1
  Li  Li3  1  0.70807258  0.02058449  0.96990985  1
  Li  Li4  1  0.83244264  0.21233911  0.18182497  1
  Li  Li5  1  0.18340451  0.30424224  0.52475643  1
  Li  Li6  1  0.43194502  0.29122914  0.61185289  1
  Zn  Zn7  1  0.13949386  0.29214465  0.36636184  1
  P  P8  1  0.45606998  0.78517596  0.19967378  1
  P  P9  1  0.51423444  0.59241457  0.04645041  1
  P  P10  1  0.60754485  0.17052412  0.06505159  1
  P  P11  1  0.94888554  0.96563203  0.80839735  1
  O  O12  1  0.30461377  0.09767211  0.68423303  1
  O  O13  1  0.44015249  0.12203823  0.49517691  1
  O  O14  1  0.03438852  0.90932040  0.25877998  1
  O  O15  1  0.66252228  0.31171108  0.52006802  1
  O  O16  1  0.54671028  0.18485446  0.96958463  1
  O  O17  1  0.77513282  0.93949894  0.89482735  1
  O  O18  1  0.59789998  0.92187424  0.08849250  1
  O  O19  1  0.19598286  0.04522729  0.32533033  1
  O  O20  1  0.38867729  0.27134903  0.82873751  1
  O  O21  1  0.35675333  0.28093451  0.54269608  1
  O  O22  1  0.14092422  0.80219698  0.07455064  1
  O  O23  1  0.98688694  0.77224477  0.19871568  1
  O  O24  1  0.00552212  0.81546143  0.70685734  1
  O  O25  1  0.72900717  0.77127035  0.07404465  1
  O  O26  1  0.35846573  0.11586906  0.86310343  1
  O  O27  1  0.62329813  0.33089802  0.06355835  1
