# generated using pymatgen
data_Sr8Li8Nb15(O6F)8
_symmetry_space_group_name_H-M   'P 1'
_cell_length_a   10.48850000
_cell_length_b   10.48850000
_cell_length_c   10.48850000
_cell_angle_alpha   90.00000000
_cell_angle_beta   90.00000000
_cell_angle_gamma   90.00000000
_symmetry_Int_Tables_number   1
_chemical_formula_structural   Sr8Li8Nb15(O6F)8
_chemical_formula_sum   'Sr8 Li8 Nb15 O48 F8'
_cell_volume   1153.82553935
_cell_formula_units_Z   1
loop_
 _symmetry_equiv_pos_site_id
 _symmetry_equiv_pos_as_xyz
  1  'x, y, z'
loop_
 _atom_site_type_symbol
 _atom_site_label
 _atom_site_symmetry_multiplicity
 _atom_site_fract_x
 _atom_site_fract_y
 _atom_site_fract_z
 _atom_site_occupancy
  Sr  Sr0  1  0.45606998  0.78517596  0.19967378  1
  Sr  Sr1  1  0.51423444  0.59241457  0.04645041  1
  Sr  Sr2  1  0.60754485  0.17052412  0.06505159  1
  Sr  Sr3  1  0.94888554  0.96563203  0.80839735  1
  Sr  Sr4  1  0.30461377  0.09767211  0.68423303  1
  Sr  Sr5  1  0.44015249  0.12203823  0.49517691  1
  Sr  Sr6  1  0.03438852  0.90932040  0.25877998  1
  Sr  Sr7  1  0.66252228  0.31171108  0.52006802  1
  Li  Li8  1  0.37454012  0.95071431  0.73199394  1
  Li  Li9  1  0.59865848  0.15601864  0.15599452  1
  Li  Li10  1  0.05808361  0.86617615  0.60111501  1
  Li  Li11  1  0.70807258  0.02058449  0.96990985  1
  Li  Li12  1  0.83244264  0.21233911  0.18182497  1
  Li  Li13  1  0.18340451  0.30424224  0.52475643  1
  Li  Li14  1  0.43194502  0.29122914  0.61185289  1
  Li  Li15  1  0.13949386  0.29214465  0.36636184  1
  Nb  Nb16  1  0.54671028  0.18485446  0.96958463  1
  Nb  Nb17  1  0.77513282  0.93949894  0.89482735  1
  Nb  Nb18  1  0.59789998  0.92187424  0.08849250  1
  Nb  Nb19  1  0.19598286  0.04522729  0.32533033  1
  Nb  Nb20  1  0.38867729  0.27134903  0.82873751  1
  Nb  Nb21  1  0.35675333  0.28093451  0.54269608  1
  Nb  Nb22  1  0.14092422  0.80219698  0.07455064  1
  Nb  Nb23  1  0.98688694  0.77224477  0.19871568  1
  Nb  Nb24  1  0.00552212  0.81546143  0.70685734  1
  Nb  Nb25  1  0.72900717  0.77127035  0.07404465  1
  Nb  Nb26  1  0.35846573  0.11586906  0.86310343  1
  Nb  Nb27  1  0.62329813  0.33089802  0.06355835  1
  Nb  Nb28  1  0.31098232  0.32518332  0.72960618  1
  Nb  Nb29  1  0.63755747  0.88721274  0.47221493  1
  Nb  Nb30  1  0.11959425  0.71324479  0.76078505  1
  O  O31  1  0.56127720  0.77096718  0.49379560  1
  O  O32  1  0.52273283  0.42754102  0.02541913  1
  O  O33  1  0.10789143  0.03142919  0.63641041  1
  O  O34  1  0.31435598  0.50857069  0.90756647  1
  O  O35  1  0.24929223  0.41038292  0.75555114  1
  O  O36  1  0.22879817  0.07697991  0.28975145  1
  O  O37  1  0.16122129  0.92969765  0.80812038  1
  O  O38  1  0.63340376  0.87146059  0.80367208  1
  O  O39  1  0.18657006  0.89255900  0.53934224  1
  O  O40  1  0.80744016  0.89609130  0.31800347  1
  O  O41  1  0.11005192  0.22793516  0.42710779  1
  O  O42  1  0.81801477  0.86073058  0.00695213  1
  O  O43  1  0.51074730  0.41741100  0.22210781  1
  O  O44  1  0.11986537  0.33761517  0.94290970  1
  O  O45  1  0.32320293  0.51879062  0.70301896  1
  O  O46  1  0.36362960  0.97178208  0.96244729  1
  O  O47  1  0.25178230  0.49724851  0.30087831  1
  O  O48  1  0.28484049  0.03688695  0.60956433  1
  O  O49  1  0.50267902  0.05147875  0.27864646  1
  O  O50  1  0.90826589  0.23956189  0.14489487  1
  O  O51  1  0.48945276  0.98565045  0.24205527  1
  O  O52  1  0.67213555  0.76161962  0.23763754  1
  O  O53  1  0.72821635  0.36778313  0.63230583  1
  O  O54  1  0.63352971  0.53577468  0.09028977  1
  O  O55  1  0.83530250  0.32078006  0.18651851  1
  O  O56  1  0.04077514  0.59089294  0.67756436  1
  O  O57  1  0.01658783  0.51209306  0.22649578  1
  O  O58  1  0.64517279  0.17436643  0.69093774  1
  O  O59  1  0.38673535  0.93672999  0.13752094  1
  O  O60  1  0.34106635  0.11347352  0.92469362  1
  O  O61  1  0.87733935  0.25794163  0.65998405  1
  O  O62  1  0.81722220  0.55520081  0.52965058  1
  O  O63  1  0.24185229  0.09310277  0.89721576  1
  O  O64  1  0.90041806  0.63310146  0.33902979  1
  O  O65  1  0.34920957  0.72595568  0.89711026  1
  O  O66  1  0.88708642  0.77987555  0.64203165  1
  O  O67  1  0.08413996  0.16162871  0.89855419  1
  O  O68  1  0.60642906  0.00919705  0.10147154  1
  O  O69  1  0.66350177  0.00506158  0.16080805  1
  O  O70  1  0.54873379  0.69189520  0.65196126  1
  O  O71  1  0.22426931  0.71217922  0.23724909  1
  O  O72  1  0.32539970  0.74649141  0.64963290  1
  O  O73  1  0.84922341  0.65761289  0.56830860  1
  O  O74  1  0.09367477  0.36771580  0.26520237  1
  O  O75  1  0.24398964  0.97301055  0.39309772  1
  O  O76  1  0.89204656  0.63113863  0.79481130  1
  O  O77  1  0.50263709  0.57690388  0.49251769  1
  O  O78  1  0.19524299  0.72245212  0.28077236  1
  F  F79  1  0.02431597  0.64547230  0.17711068  1
  F  F80  1  0.94045858  0.95392858  0.91486439  1
  F  F81  1  0.37015870  0.01545662  0.92831856  1
  F  F82  1  0.42818415  0.96665482  0.96361998  1
  F  F83  1  0.85300946  0.29444889  0.38509773  1
  F  F84  1  0.85113667  0.31692201  0.16949275  1
  F  F85  1  0.55680126  0.93615477  0.69602980  1
  F  F86  1  0.57006117  0.09717649  0.61500723  1
