# generated using pymatgen
data_LaTi2O6
_symmetry_space_group_name_H-M   'P 1'
_cell_length_a   3.86700000
_cell_length_b   3.88200000
_cell_length_c   7.79100000
_cell_angle_alpha   90.00000000
_cell_angle_beta   90.00000000
_cell_angle_gamma   90.00000000
_symmetry_Int_Tables_number   1
_chemical_formula_structural   LaTi2O6
_chemical_formula_sum   'La1 Ti2 O6'
_cell_volume   116.95610795
_cell_formula_units_Z   1
loop_
 _symmetry_equiv_pos_site_id
 _symmetry_equiv_pos_as_xyz
  1  'x, y, z'
loop_
 _atom_site_type_symbol
 _atom_site_label
 _atom_site_symmetry_multiplicity
 _atom_site_fract_x
 _atom_site_fract_y
 _atom_site_fract_z
 _atom_site_occupancy
  La  La0  1  0.04928569  0.62545988  0.26800606  1
  Ti  Ti1  1  0.84398136  0.40134152  0.84400548  1
  Ti  Ti2  1  0.13382385  0.94191639  0.39888499  1
  O  O3  1  0.97941551  0.29192742  0.03009015  1
  O  O4  1  0.78766089  0.16755736  0.81817503  1
  O  O5  1  0.69575776  0.81659549  0.47524357  1
  O  O6  1  0.70877086  0.56805498  0.38814711  1
  O  O7  1  0.70785535  0.86050614  0.63363816  1
  O  O8  1  0.21482404  0.54393002  0.80032622  1
