# generated using pymatgen
data_LaTiO5
_symmetry_space_group_name_H-M   'P 1'
_cell_length_a   3.87220000
_cell_length_b   3.87220000
_cell_length_c   7.73000000
_cell_angle_alpha   90.00000000
_cell_angle_beta   90.00000000
_cell_angle_gamma   90.00000000
_symmetry_Int_Tables_number   1
_chemical_formula_structural   LaTiO5
_chemical_formula_sum   'La1 Ti1 O5'
_cell_volume   115.90310085
_cell_formula_units_Z   1
loop_
 _symmetry_equiv_pos_site_id
 _symmetry_equiv_pos_as_xyz
  1  'x, y, z'
loop_
 _atom_site_type_symbol
 _atom_site_label
 _atom_site_symmetry_multiplicity
 _atom_site_fract_x
 _atom_site_fract_y
 _atom_site_fract_z
 _atom_site_occupancy
  La  La0  1  0.37454012  0.95071431  0.73199394  1
  Ti  Ti1  1  0.59865848  0.15601864  0.15599452  1
  O  O2  1  0.05808361  0.86617615  0.60111501  1
  O  O3  1  0.70807258  0.02058449  0.96990985  1
  O  O4  1  0.83244264  0.21233911  0.18182497  1
  O  O5  1  0.18340451  0.30424224  0.52475643  1
  O  O6  1  0.43194502  0.29122914  0.61185289  1
