# generated using pymatgen
data_LiSbO2
_symmetry_space_group_name_H-M   P2_1/c
_cell_length_a   4.85500000
_cell_length_b   17.85700000
_cell_length_c   5.57710000
_cell_angle_alpha   90.00000000
_cell_angle_beta   90.06100000
_cell_angle_gamma   90.00000000
_symmetry_Int_Tables_number   14
_chemical_formula_structural   LiSbO2
_chemical_formula_sum   'Li8 Sb8 O16'
_cell_volume   483.51050964
_cell_formula_units_Z   8
loop_
 _symmetry_equiv_pos_site_id
 _symmetry_equiv_pos_as_xyz
  1  'x, y, z'
  2  '-x, -y, -z'
  3  '-x, y+1/2, -z+1/2'
  4  'x, -y+1/2, z+1/2'
loop_
 _atom_site_type_symbol
 _atom_site_label
 _atom_site_symmetry_multiplicity
 _atom_site_fract_x
 _atom_site_fract_y
 _atom_site_fract_z
 _atom_site_occupancy
  Li  Li0  4  0.22528400  0.70561831  0.12496999  1.0
  Li  Li1  4  0.23930458  0.20243538  0.04101548  1.0
  Sb  Sb2  4  0.24002569  0.09524664  0.49172669  1.0
  Sb  Sb3  4  0.27319698  0.59208620  0.58014101  1.0
  O  O4  4  0.15801109  0.09759242  0.82299662  1.0
  O  O5  4  0.16848085  0.19349102  0.37722523  1.0
  O  O6  4  0.33995185  0.68898208  0.46277719  1.0
  O  O7  4  0.37764353  0.62329216  0.90672103  1.0
