# generated using pymatgen
data_Li64.016Ge8P32
_symmetry_space_group_name_H-M   P-43n
_cell_length_a   11.78310000
_cell_length_b   11.78310000
_cell_length_c   11.78310000
_cell_angle_alpha   90.00000000
_cell_angle_beta   90.00000000
_cell_angle_gamma   90.00000000
_symmetry_Int_Tables_number   218
_chemical_formula_structural   Li64.016Ge8P32
_chemical_formula_sum   'Li64.016 Ge8 P32'
_cell_volume   1635.98263777
_cell_formula_units_Z   1
loop_
 _symmetry_equiv_pos_site_id
 _symmetry_equiv_pos_as_xyz
  1  'x, y, z'
  2  'y+1/2, -x+1/2, -z+1/2'
  3  '-x, -y, z'
  4  '-y+1/2, x+1/2, -z+1/2'
  5  'x, -y, -z'
  6  'y+1/2, x+1/2, z+1/2'
  7  '-x, y, -z'
  8  '-y+1/2, -x+1/2, z+1/2'
  9  'z, x, y'
  10  '-z+1/2, y+1/2, -x+1/2'
  11  'z, -x, -y'
  12  '-z+1/2, -y+1/2, x+1/2'
  13  '-z, x, -y'
  14  'z+1/2, y+1/2, x+1/2'
  15  '-z, -x, y'
  16  'z+1/2, -y+1/2, -x+1/2'
  17  'y, z, x'
  18  '-x+1/2, -z+1/2, y+1/2'
  19  '-y, z, -x'
  20  'x+1/2, -z+1/2, -y+1/2'
  21  '-y, -z, x'
  22  'x+1/2, z+1/2, y+1/2'
  23  'y, -z, -x'
  24  '-x+1/2, z+1/2, -y+1/2'
loop_
 _atom_site_type_symbol
 _atom_site_label
 _atom_site_symmetry_multiplicity
 _atom_site_fract_x
 _atom_site_fract_y
 _atom_site_fract_z
 _atom_site_occupancy
  Li  Li0  6  0.00000000  0.00000000  0.50000000  0.78
  Li  Li1  24  0.00625172  0.22716188  0.22683633  0.887
  Li  Li2  24  0.11560302  0.35032873  0.86360828  0.502
  Li  Li3  12  0.00000000  0.00000000  0.24355596  1.0
  Li  Li4  8  0.24770628  0.24770628  0.75229372  1.0
  Li  Li5  6  0.00000000  0.50000000  0.25000000  1.0
  Ge  Ge6  6  0.00000000  0.25000000  0.50000000  1.0
  Ge  Ge7  2  0.00000000  0.00000000  0.00000000  1.0
  P  P8  24  0.10056149  0.35692936  0.60996776  1.0
  P  P9  8  0.11779560  0.11779560  0.88220440  1.0
