# generated using pymatgen
data_Li12.004Cr3.996Mo12O48
_symmetry_space_group_name_H-M   Pnma
_cell_length_a   5.07700000
_cell_length_b   10.43800000
_cell_length_c   17.48300000
_cell_angle_alpha   90.00000000
_cell_angle_beta   90.00000000
_cell_angle_gamma   90.00000000
_symmetry_Int_Tables_number   62
_chemical_formula_structural   Li12.004Cr3.996Mo12O48
_chemical_formula_sum   'Li12.004 Cr3.996 Mo12 O48'
_cell_volume   926.48931166
_cell_formula_units_Z   1
loop_
 _symmetry_equiv_pos_site_id
 _symmetry_equiv_pos_as_xyz
  1  'x, y, z'
  2  '-x, -y, -z'
  3  '-x+1/2, -y, z+1/2'
  4  'x+1/2, y, -z+1/2'
  5  'x+1/2, -y+1/2, -z+1/2'
  6  '-x+1/2, y+1/2, z+1/2'
  7  '-x, y+1/2, -z'
  8  'x, -y+1/2, z'
loop_
 _atom_site_type_symbol
 _atom_site_label
 _atom_site_symmetry_multiplicity
 _atom_site_fract_x
 _atom_site_fract_y
 _atom_site_fract_z
 _atom_site_occupancy
  Li  Li0  4  0.24657013  0.25000000  0.81070070  1.0
  Cr  Cr1  8  0.23864419  0.05497231  0.98092403  0.308
  Li  Li2  8  0.23864419  0.05497231  0.98092403  0.692
  Cr  Cr3  4  0.09921704  0.25000000  0.23406687  0.383
  Li  Li4  4  0.09921704  0.25000000  0.23406687  0.617
  Mo  Mo5  8  0.21402740  0.02058648  0.65813997  1.0
  Mo  Mo6  4  0.20552678  0.75000000  0.93605271  1.0
  O  O7  8  0.07448603  0.00147924  0.07046539  1.0
  O  O8  8  0.07634704  0.61871186  0.38171147  1.0
  O  O9  8  0.08693640  0.61529292  0.19497858  1.0
  O  O10  8  0.09306365  0.10886454  0.46120133  1.0
  O  O11  8  0.15021612  0.61700014  0.69459343  1.0
  O  O12  4  0.06081064  0.25000000  0.98704776  1.0
  O  O13  4  0.15049427  0.75000000  0.83096121  1.0
