# generated using pymatgen
data_LiVPO4F
_symmetry_space_group_name_H-M   P-1
_cell_length_a   5.17440000
_cell_length_b   5.31150000
_cell_length_c   7.26170000
_cell_angle_alpha   107.54699700
_cell_angle_beta   107.93399800
_cell_angle_gamma   98.44400000
_symmetry_Int_Tables_number   2
_chemical_formula_structural   LiVPO4F
_chemical_formula_sum   'Li2 V2 P2 O8 F2'
_cell_volume   174.61336137
_cell_formula_units_Z   2
loop_
 _symmetry_equiv_pos_site_id
 _symmetry_equiv_pos_as_xyz
  1  'x, y, z'
  2  '-x, -y, -z'
loop_
 _atom_site_type_symbol
 _atom_site_label
 _atom_site_symmetry_multiplicity
 _atom_site_fract_x
 _atom_site_fract_y
 _atom_site_fract_z
 _atom_site_occupancy
  Li  Li0  2  0.25000000  0.62500000  0.30100000  0.5
  Li  Li1  2  0.26600000  0.61200000  0.21100000  0.5
  V  V2  1  0.00000000  0.00000000  0.00000000  1.0
  V  V3  1  0.00000000  0.00000000  0.50000000  1.0
  P  P4  2  0.32830000  0.64950000  0.75320000  1.0
  O  O5  2  0.10550000  0.66550000  0.85340000  1.0
  O  O6  2  0.26450000  0.79850000  0.59780000  1.0
  O  O7  2  0.31750000  0.36130000  0.64060000  1.0
  O  O8  2  0.36780000  0.24070000  0.09660000  1.0
  F  F9  2  0.11590000  0.92010000  0.25540000  1.0
