# generated using pymatgen
data_Li4Zn(PO4)2
_symmetry_space_group_name_H-M   P2_1/c
_cell_length_a   8.11990000
_cell_length_b   10.24192000
_cell_length_c   8.10549000
_cell_angle_alpha   90.00000000
_cell_angle_beta   104.85890000
_cell_angle_gamma   90.00000000
_symmetry_Int_Tables_number   14
_chemical_formula_structural   Li4Zn(PO4)2
_chemical_formula_sum   'Li16 Zn4 P8 O32'
_cell_volume   651.53879217
_cell_formula_units_Z   4
loop_
 _symmetry_equiv_pos_site_id
 _symmetry_equiv_pos_as_xyz
  1  'x, y, z'
  2  '-x, -y, -z'
  3  '-x, y+1/2, -z+1/2'
  4  'x, -y+1/2, z+1/2'
loop_
 _atom_site_type_symbol
 _atom_site_label
 _atom_site_symmetry_multiplicity
 _atom_site_fract_x
 _atom_site_fract_y
 _atom_site_fract_z
 _atom_site_occupancy
  Li  Li0  4  0.02000000  0.07380000  0.26900000  1.0
  Li  Li1  4  0.11600000  0.16050000  0.61200000  1.0
  Li  Li2  4  0.15000000  0.66450000  0.65700000  1.0
  Li  Li3  4  0.34800000  0.14660000  0.34100000  1.0
  Zn  Zn4  4  0.40620000  0.65670000  0.40670000  1.0
  P  P5  4  0.21250000  0.09210000  0.97260000  1.0
  P  P6  4  0.27060000  0.59160000  0.03530000  1.0
  O  O7  4  0.06200000  0.10080000  0.81150000  1.0
  O  O8  4  0.12300000  0.65360000  0.08880000  1.0
  O  O9  4  0.16280000  0.15050000  0.13130000  1.0
  O  O10  4  0.22490000  0.04650000  0.47690000  1.0
  O  O11  4  0.25180000  0.55490000  0.50460000  1.0
  O  O12  4  0.30740000  0.66920000  0.88480000  1.0
  O  O13  4  0.36140000  0.16720000  0.93780000  1.0
  O  O14  4  0.43120000  0.60170000  0.18730000  1.0
