# generated using pymatgen
data_Li40.008La24Nb16O96
_symmetry_space_group_name_H-M   I2_13
_cell_length_a   12.79700000
_cell_length_b   12.79700000
_cell_length_c   12.79700000
_cell_angle_alpha   90.00000000
_cell_angle_beta   90.00000000
_cell_angle_gamma   90.00000000
_symmetry_Int_Tables_number   199
_chemical_formula_structural   Li40.008La24Nb16O96
_chemical_formula_sum   'Li40.008 La24 Nb16 O96'
_cell_volume   2095.67778557
_cell_formula_units_Z   1
loop_
 _symmetry_equiv_pos_site_id
 _symmetry_equiv_pos_as_xyz
  1  'x, y, z'
  2  '-x, -y+1/2, z'
  3  'x, -y, -z+1/2'
  4  '-x, y+1/2, -z+1/2'
  5  'z, x, y'
  6  'z, -x, -y+1/2'
  7  '-z+1/2, x, -y'
  8  '-z+1/2, -x, y+1/2'
  9  'y, z, x'
  10  '-y+1/2, z, -x'
  11  '-y, -z+1/2, x'
  12  'y+1/2, -z+1/2, -x'
  13  'x+1/2, y+1/2, z+1/2'
  14  '-x+1/2, -y, z+1/2'
  15  'x+1/2, -y+1/2, -z'
  16  '-x+1/2, y, -z'
  17  'z+1/2, x+1/2, y+1/2'
  18  'z+1/2, -x+1/2, -y'
  19  '-z, x+1/2, -y+1/2'
  20  '-z, -x+1/2, y'
  21  'y+1/2, z+1/2, x+1/2'
  22  '-y, z+1/2, -x+1/2'
  23  '-y+1/2, -z, x+1/2'
  24  'y, -z, -x+1/2'
loop_
 _atom_site_type_symbol
 _atom_site_label
 _atom_site_symmetry_multiplicity
 _atom_site_fract_x
 _atom_site_fract_y
 _atom_site_fract_z
 _atom_site_occupancy
  Li  Li0  24  0.03488890  0.37063434  0.31624977  1.0
  Li  Li1  24  0.03794597  0.91693695  0.69973042  0.667
  La  La2  12  0.00000000  0.25000000  0.11953807  1.0
  La  La3  12  0.00000000  0.25000000  0.63310837  1.0
  Nb  Nb4  8  0.00528976  0.00528976  0.00528976  1.0
  Nb  Nb5  8  0.24880910  0.25119090  0.74880910  1.0
  O  O6  24  0.02323678  0.06637914  0.65613518  1.0
  O  O7  24  0.04129511  0.44007776  0.14509355  1.0
  O  O8  24  0.10753253  0.30726478  0.77843345  1.0
  O  O9  24  0.11873811  0.80428368  0.20902545  1.0
