# generated using pymatgen
data_Li32.6B56Cl8O96
_symmetry_space_group_name_H-M   F-43c
_cell_length_a   12.16700000
_cell_length_b   12.16700000
_cell_length_c   12.16700000
_cell_angle_alpha   90.00000000
_cell_angle_beta   90.00000000
_cell_angle_gamma   90.00000000
_symmetry_Int_Tables_number   219
_chemical_formula_structural   Li32.6B56Cl8O96
_chemical_formula_sum   'Li32.6 B56 Cl8 O96'
_cell_volume   1801.15266146
_cell_formula_units_Z   1
loop_
 _symmetry_equiv_pos_site_id
 _symmetry_equiv_pos_as_xyz
  1  'x, y, z'
  2  'y+1/2, -x, -z'
  3  '-x+1/2, -y+1/2, z'
  4  '-y, x+1/2, -z'
  5  'x, -y, -z'
  6  'y+1/2, x, z'
  7  '-x+1/2, y+1/2, -z'
  8  '-y, -x+1/2, z'
  9  'z, x, y'
  10  '-z, y+1/2, -x'
  11  'z, -x+1/2, -y+1/2'
  12  '-z, -y, x+1/2'
  13  '-z, x, -y'
  14  'z, y+1/2, x'
  15  '-z, -x+1/2, y+1/2'
  16  'z, -y, -x+1/2'
  17  'y, z, x'
  18  '-x, -z, y+1/2'
  19  '-y+1/2, z, -x+1/2'
  20  'x+1/2, -z, -y'
  21  '-y, -z, x'
  22  'x, z, y+1/2'
  23  'y+1/2, -z, -x+1/2'
  24  '-x+1/2, z, -y'
  25  'x+1/2, y+1/2, z'
  26  'y, -x+1/2, -z'
  27  '-x, -y, z'
  28  '-y+1/2, x, -z'
  29  'x+1/2, -y+1/2, -z'
  30  'y, x+1/2, z'
  31  '-x, y, -z'
  32  '-y+1/2, -x, z'
  33  'z+1/2, x+1/2, y'
  34  '-z+1/2, y, -x'
  35  'z+1/2, -x, -y+1/2'
  36  '-z+1/2, -y+1/2, x+1/2'
  37  '-z+1/2, x+1/2, -y'
  38  'z+1/2, y, x'
  39  '-z+1/2, -x, y+1/2'
  40  'z+1/2, -y+1/2, -x+1/2'
  41  'y+1/2, z+1/2, x'
  42  '-x+1/2, -z+1/2, y+1/2'
  43  '-y, z+1/2, -x+1/2'
  44  'x, -z+1/2, -y'
  45  '-y+1/2, -z+1/2, x'
  46  'x+1/2, z+1/2, y+1/2'
  47  'y, -z+1/2, -x+1/2'
  48  '-x, z+1/2, -y'
  49  'x+1/2, y, z+1/2'
  50  'y, -x, -z+1/2'
  51  '-x, -y+1/2, z+1/2'
  52  '-y+1/2, x+1/2, -z+1/2'
  53  'x+1/2, -y, -z+1/2'
  54  'y, x, z+1/2'
  55  '-x, y+1/2, -z+1/2'
  56  '-y+1/2, -x+1/2, z+1/2'
  57  'z+1/2, x, y+1/2'
  58  '-z+1/2, y+1/2, -x+1/2'
  59  'z+1/2, -x+1/2, -y'
  60  '-z+1/2, -y, x'
  61  '-z+1/2, x, -y+1/2'
  62  'z+1/2, y+1/2, x+1/2'
  63  '-z+1/2, -x+1/2, y'
  64  'z+1/2, -y, -x'
  65  'y+1/2, z, x+1/2'
  66  '-x+1/2, -z, y'
  67  '-y, z, -x'
  68  'x, -z, -y+1/2'
  69  '-y+1/2, -z, x+1/2'
  70  'x+1/2, z, y'
  71  'y, -z, -x'
  72  '-x, z, -y+1/2'
  73  'x, y+1/2, z+1/2'
  74  'y+1/2, -x+1/2, -z+1/2'
  75  '-x+1/2, -y, z+1/2'
  76  '-y, x, -z+1/2'
  77  'x, -y+1/2, -z+1/2'
  78  'y+1/2, x+1/2, z+1/2'
  79  '-x+1/2, y, -z+1/2'
  80  '-y, -x, z+1/2'
  81  'z, x+1/2, y+1/2'
  82  '-z, y, -x+1/2'
  83  'z, -x, -y'
  84  '-z, -y+1/2, x'
  85  '-z, x+1/2, -y+1/2'
  86  'z, y, x+1/2'
  87  '-z, -x, y'
  88  'z, -y+1/2, -x'
  89  'y, z+1/2, x+1/2'
  90  '-x, -z+1/2, y'
  91  '-y+1/2, z+1/2, -x'
  92  'x+1/2, -z+1/2, -y+1/2'
  93  '-y, -z+1/2, x+1/2'
  94  'x, z+1/2, y'
  95  'y+1/2, -z+1/2, -x'
  96  '-x+1/2, z+1/2, -y+1/2'
loop_
 _atom_site_type_symbol
 _atom_site_label
 _atom_site_symmetry_multiplicity
 _atom_site_fract_x
 _atom_site_fract_y
 _atom_site_fract_z
 _atom_site_occupancy
  Li  Li0  32  0.13570000  0.13570000  0.86430000  0.316
  Li  Li1  24  0.00000000  0.25000000  0.25000000  0.937
  B  B2  32  0.10083000  0.10083000  0.60083000  1.0
  B  B3  24  0.00000000  0.00000000  0.25000000  1.0
  Cl  Cl4  8  0.25000000  0.25000000  0.25000000  1.0
  O  O5  96  0.02263000  0.09769000  0.18208000  1.0
