# generated using pymatgen
data_Li14.8Ge3.4W0.6O16
_symmetry_space_group_name_H-M   Pnma
_cell_length_a   10.93800000
_cell_length_b   6.27400000
_cell_length_c   5.16090000
_cell_angle_alpha   90.00000000
_cell_angle_beta   90.00000000
_cell_angle_gamma   90.00000000
_symmetry_Int_Tables_number   62
_chemical_formula_structural   Li14.8Ge3.4W0.6O16
_chemical_formula_sum   'Li14.8 Ge3.4 W0.6 O16'
_cell_volume   354.16682443
_cell_formula_units_Z   1
loop_
 _symmetry_equiv_pos_site_id
 _symmetry_equiv_pos_as_xyz
  1  'x, y, z'
  2  '-x, -y, -z'
  3  '-x+1/2, -y, z+1/2'
  4  'x+1/2, y, -z+1/2'
  5  'x+1/2, -y+1/2, -z+1/2'
  6  '-x+1/2, y+1/2, z+1/2'
  7  '-x, y+1/2, -z'
  8  'x, -y+1/2, z'
loop_
 _atom_site_type_symbol
 _atom_site_label
 _atom_site_symmetry_multiplicity
 _atom_site_fract_x
 _atom_site_fract_y
 _atom_site_fract_z
 _atom_site_occupancy
  Li  Li0  4  0.07212384  0.25000000  0.88307709  0.39
  Li  Li1  8  0.03283721  0.06915843  0.39176637  0.27
  Li  Li2  8  0.15844686  0.53167307  0.32729683  0.4
  Li  Li3  8  0.18148964  0.06312071  0.10374639  0.6
  Li  Li4  4  0.08228614  0.25000000  0.67223523  0.61
  Li  Li5  4  0.21384661  0.75000000  0.45809171  0.16
  Ge  Ge6  4  0.08042615  0.75000000  0.84484067  0.85
  W  W7  4  0.08042615  0.75000000  0.84484067  0.15
  O  O8  8  0.17475009  0.51905382  0.74124687  1.0
  O  O9  4  0.05217210  0.25000000  0.27390891  1.0
  O  O10  4  0.10217917  0.75000000  0.18184157  1.0
