# generated using pymatgen
data_Li20.74Ge2.7P3.3S24
_symmetry_space_group_name_H-M   P4_2/nmc
_cell_length_a   8.71300000
_cell_length_b   8.71300000
_cell_length_c   12.63970000
_cell_angle_alpha   90.00000000
_cell_angle_beta   90.00000000
_cell_angle_gamma   90.00000000
_symmetry_Int_Tables_number   137
_chemical_formula_structural   Li20.74Ge2.7P3.3S24
_chemical_formula_sum   'Li20.74 Ge2.7 P3.3 S24'
_cell_volume   959.56012925
_cell_formula_units_Z   1
loop_
 _symmetry_equiv_pos_site_id
 _symmetry_equiv_pos_as_xyz
  1  'x, y, z'
  2  '-y+1/2, x+1/2, z+1/2'
  3  '-x, -y, z'
  4  'y+1/2, -x+1/2, z+1/2'
  5  'x+1/2, -y+1/2, -z+1/2'
  6  '-y, -x, -z'
  7  '-x+1/2, y+1/2, -z+1/2'
  8  'y, x, -z'
  9  '-x+1/2, -y+1/2, -z+1/2'
  10  'y, -x, -z'
  11  'x+1/2, y+1/2, -z+1/2'
  12  '-y, x, -z'
  13  '-x, y, z'
  14  'y+1/2, x+1/2, z+1/2'
  15  'x, -y, z'
  16  '-y+1/2, -x+1/2, z+1/2'
loop_
 _atom_site_type_symbol
 _atom_site_label
 _atom_site_symmetry_multiplicity
 _atom_site_fract_x
 _atom_site_fract_y
 _atom_site_fract_z
 _atom_site_occupancy
  Li  Li0  16  0.23858917  0.23923320  0.69919102  0.4738
  Li  Li1  8  0.24451645  0.24451645  0.00000000  0.7595
  Li  Li2  4  0.00000000  0.00000000  0.24832411  0.7708
  Li  Li3  4  0.00000000  0.50000000  0.43643922  1.0
  Ge  Ge4  4  0.00000000  0.50000000  0.18195140  0.675
  P  P5  4  0.00000000  0.50000000  0.18195140  0.325
  P  P6  2  0.00000000  0.00000000  0.50000000  1.0
  S  S7  8  0.00000000  0.18280880  0.40789063  1.0
  S  S8  8  0.00000000  0.30413163  0.11036590  1.0
  S  S9  8  0.00000000  0.30866887  0.79874919  1.0
