# generated using pymatgen
data_LiAlH4
_symmetry_space_group_name_H-M   P2_1/c
_cell_length_a   4.82540000
_cell_length_b   7.80400000
_cell_length_c   7.89680000
_cell_angle_alpha   90.00000000
_cell_angle_beta   112.26800000
_cell_angle_gamma   90.00000000
_symmetry_Int_Tables_number   14
_chemical_formula_structural   LiAlH4
_chemical_formula_sum   'Li4 Al4 H16'
_cell_volume   275.19548585
_cell_formula_units_Z   4
loop_
 _symmetry_equiv_pos_site_id
 _symmetry_equiv_pos_as_xyz
  1  'x, y, z'
  2  '-x, -y, -z'
  3  '-x, y+1/2, -z+1/2'
  4  'x, -y+1/2, z+1/2'
loop_
 _atom_site_type_symbol
 _atom_site_label
 _atom_site_symmetry_multiplicity
 _atom_site_fract_x
 _atom_site_fract_y
 _atom_site_fract_z
 _atom_site_occupancy
  Li  Li0  4  0.43790183  0.51597481  0.18495166  1.0
  Al  Al1  4  0.14382945  0.20579708  0.93868025  1.0
  H  H2  4  0.16693307  0.09917061  0.78134388  1.0
  H  H3  4  0.19087943  0.73768961  0.14037691  1.0
  H  H4  4  0.23072996  0.08548773  0.09803262  1.0
  H  H5  4  0.34198946  0.12380186  0.48274283  1.0
