# generated using pymatgen
data_Li20.84Si2.4Sn0.6P3S24
_symmetry_space_group_name_H-M   P4_2/nmc
_cell_length_a   8.69204000
_cell_length_b   8.69204000
_cell_length_c   12.61660000
_cell_angle_alpha   90.00000000
_cell_angle_beta   90.00000000
_cell_angle_gamma   90.00000000
_symmetry_Int_Tables_number   137
_chemical_formula_structural   Li20.84Si2.4Sn0.6P3S24
_chemical_formula_sum   'Li20.84 Si2.4 Sn0.6 P3 S24'
_cell_volume   953.20380384
_cell_formula_units_Z   1
loop_
 _symmetry_equiv_pos_site_id
 _symmetry_equiv_pos_as_xyz
  1  'x, y, z'
  2  '-y+1/2, x+1/2, z+1/2'
  3  '-x, -y, z'
  4  'y+1/2, -x+1/2, z+1/2'
  5  'x+1/2, -y+1/2, -z+1/2'
  6  '-y, -x, -z'
  7  '-x+1/2, y+1/2, -z+1/2'
  8  'y, x, -z'
  9  '-x+1/2, -y+1/2, -z+1/2'
  10  'y, -x, -z'
  11  'x+1/2, y+1/2, -z+1/2'
  12  '-y, x, -z'
  13  '-x, y, z'
  14  'y+1/2, x+1/2, z+1/2'
  15  'x, -y, z'
  16  '-y+1/2, -x+1/2, z+1/2'
loop_
 _atom_site_type_symbol
 _atom_site_label
 _atom_site_symmetry_multiplicity
 _atom_site_fract_x
 _atom_site_fract_y
 _atom_site_fract_z
 _atom_site_occupancy
  Li  Li0  16  0.23755174  0.25873222  0.18755431  0.51
  Li  Li1  8  0.24106996  0.24106996  0.00000000  0.75
  Li  Li2  4  0.00000000  0.50000000  0.43420984  1.0
  Li  Li3  4  0.00000000  0.00000000  0.23229763  0.67
  Sn  Sn4  4  0.00000000  0.50000000  0.17221201  0.15
  Si  Si5  4  0.00000000  0.50000000  0.17221201  0.6
  P  P6  4  0.00000000  0.50000000  0.17221201  0.25
  P  P7  2  0.00000000  0.00000000  0.50000000  1.0
  S  S8  8  0.00000000  0.19075409  0.42383378  1.0
  S  S9  8  0.00000000  0.27762428  0.08662419  1.0
  S  S10  8  0.00000000  0.30506633  0.79793461  1.0
