# generated using pymatgen
data_Li3PO4
_symmetry_space_group_name_H-M   Pnma
_cell_length_a   10.49000000
_cell_length_b   6.12000000
_cell_length_c   4.92660000
_cell_angle_alpha   90.00000000
_cell_angle_beta   90.00000000
_cell_angle_gamma   90.00000000
_symmetry_Int_Tables_number   62
_chemical_formula_structural   Li3PO4
_chemical_formula_sum   'Li12 P4 O16'
_cell_volume   316.28180808
_cell_formula_units_Z   4
loop_
 _symmetry_equiv_pos_site_id
 _symmetry_equiv_pos_as_xyz
  1  'x, y, z'
  2  '-x, -y, -z'
  3  '-x+1/2, -y, z+1/2'
  4  'x+1/2, y, -z+1/2'
  5  'x+1/2, -y+1/2, -z+1/2'
  6  '-x+1/2, y+1/2, z+1/2'
  7  '-x, y+1/2, -z'
  8  'x, -y+1/2, z'
loop_
 _atom_site_type_symbol
 _atom_site_label
 _atom_site_symmetry_multiplicity
 _atom_site_fract_x
 _atom_site_fract_y
 _atom_site_fract_z
 _atom_site_occupancy
  Li  Li0  8  0.15579285  0.50327523  0.29684959  1.0
  Li  Li1  4  0.08315857  0.25000000  0.70264999  1.0
  P  P2  4  0.08804838  0.75000000  0.80902769  1.0
  O  O3  8  0.16845262  0.54427720  0.70928928  1.0
  O  O4  4  0.05807817  0.25000000  0.29850820  1.0
  O  O5  4  0.09211554  0.75000000  0.10841721  1.0
