# generated using pymatgen
data_Na0.2Li0.3La0.5Nb2O6
_symmetry_space_group_name_H-M   Pmmm
_cell_length_a   3.90600000
_cell_length_b   3.90700000
_cell_length_c   7.85200000
_cell_angle_alpha   90.00000000
_cell_angle_beta   90.00000000
_cell_angle_gamma   90.00000000
_symmetry_Int_Tables_number   47
_chemical_formula_structural   Na0.2Li0.3La0.5Nb2O6
_chemical_formula_sum   'Na0.2 Li0.3 La0.5 Nb2 O6'
_cell_volume   119.82734618
_cell_formula_units_Z   1
loop_
 _symmetry_equiv_pos_site_id
 _symmetry_equiv_pos_as_xyz
  1  'x, y, z'
  2  '-x, -y, -z'
  3  '-x, -y, z'
  4  'x, y, -z'
  5  'x, -y, -z'
  6  '-x, y, z'
  7  '-x, y, -z'
  8  'x, -y, z'
loop_
 _atom_site_type_symbol
 _atom_site_label
 _atom_site_symmetry_multiplicity
 _atom_site_fract_x
 _atom_site_fract_y
 _atom_site_fract_z
 _atom_site_occupancy
  La  La0  1  0.00000000  0.00000000  0.00000000  0.5
  Li  Li1  1  0.00000000  0.00000000  0.00000000  0.3
  Na  Na2  1  0.00000000  0.00000000  0.00000000  0.2
  Nb  Nb3  2  0.50000000  0.50000000  0.24811440  1.0
  O  O4  2  0.00000000  0.50000000  0.29758729  1.0
  O  O5  2  0.50000000  0.00000000  0.29899291  1.0
  O  O6  1  0.50000000  0.50000000  0.00000000  1.0
  O  O7  1  0.50000000  0.50000000  0.50000000  1.0
