# generated using pymatgen
data_Li2HfIn(PO4)3
_symmetry_space_group_name_H-M   'P 1'
_cell_length_a   8.75700000
_cell_length_b   8.95400000
_cell_length_c   24.28000000
_cell_angle_alpha   90.00000000
_cell_angle_beta   90.00000000
_cell_angle_gamma   90.00000000
_symmetry_Int_Tables_number   1
_chemical_formula_structural   Li2HfIn(PO4)3
_chemical_formula_sum   'Li16 Hf8 In8 P24 O96'
_cell_volume   1903.79912184
_cell_formula_units_Z   8
loop_
 _symmetry_equiv_pos_site_id
 _symmetry_equiv_pos_as_xyz
  1  'x, y, z'
loop_
 _atom_site_type_symbol
 _atom_site_label
 _atom_site_symmetry_multiplicity
 _atom_site_fract_x
 _atom_site_fract_y
 _atom_site_fract_z
 _atom_site_occupancy
  Li  Li0  1  0.37454012  0.95071431  0.73199394  1
  Li  Li1  1  0.59865848  0.15601864  0.15599452  1
  Li  Li2  1  0.05808361  0.86617615  0.60111501  1
  Li  Li3  1  0.70807258  0.02058449  0.96990985  1
  Li  Li4  1  0.83244264  0.21233911  0.18182497  1
  Li  Li5  1  0.18340451  0.30424224  0.52475643  1
  Li  Li6  1  0.43194502  0.29122914  0.61185289  1
  Li  Li7  1  0.13949386  0.29214465  0.36636184  1
  Li  Li8  1  0.45606998  0.78517596  0.19967378  1
  Li  Li9  1  0.51423444  0.59241457  0.04645041  1
  Li  Li10  1  0.60754485  0.17052412  0.06505159  1
  Li  Li11  1  0.94888554  0.96563203  0.80839735  1
  Li  Li12  1  0.30461377  0.09767211  0.68423303  1
  Li  Li13  1  0.44015249  0.12203823  0.49517691  1
  Li  Li14  1  0.03438852  0.90932040  0.25877998  1
  Li  Li15  1  0.66252228  0.31171108  0.52006802  1
  Hf  Hf16  1  0.00552212  0.81546143  0.70685734  1
  Hf  Hf17  1  0.72900717  0.77127035  0.07404465  1
  Hf  Hf18  1  0.35846573  0.11586906  0.86310343  1
  Hf  Hf19  1  0.62329813  0.33089802  0.06355835  1
  Hf  Hf20  1  0.31098232  0.32518332  0.72960618  1
  Hf  Hf21  1  0.63755747  0.88721274  0.47221493  1
  Hf  Hf22  1  0.11959425  0.71324479  0.76078505  1
  Hf  Hf23  1  0.56127720  0.77096718  0.49379560  1
  In  In24  1  0.54671028  0.18485446  0.96958463  1
  In  In25  1  0.77513282  0.93949894  0.89482735  1
  In  In26  1  0.59789998  0.92187424  0.08849250  1
  In  In27  1  0.19598286  0.04522729  0.32533033  1
  In  In28  1  0.38867729  0.27134903  0.82873751  1
  In  In29  1  0.35675333  0.28093451  0.54269608  1
  In  In30  1  0.14092422  0.80219698  0.07455064  1
  In  In31  1  0.98688694  0.77224477  0.19871568  1
  P  P32  1  0.52273283  0.42754102  0.02541913  1
  P  P33  1  0.10789143  0.03142919  0.63641041  1
  P  P34  1  0.31435598  0.50857069  0.90756647  1
  P  P35  1  0.24929223  0.41038292  0.75555114  1
  P  P36  1  0.22879817  0.07697991  0.28975145  1
  P  P37  1  0.16122129  0.92969765  0.80812038  1
  P  P38  1  0.63340376  0.87146059  0.80367208  1
  P  P39  1  0.18657006  0.89255900  0.53934224  1
  P  P40  1  0.80744016  0.89609130  0.31800347  1
  P  P41  1  0.11005192  0.22793516  0.42710779  1
  P  P42  1  0.81801477  0.86073058  0.00695213  1
  P  P43  1  0.51074730  0.41741100  0.22210781  1
  P  P44  1  0.11986537  0.33761517  0.94290970  1
  P  P45  1  0.32320293  0.51879062  0.70301896  1
  P  P46  1  0.36362960  0.97178208  0.96244729  1
  P  P47  1  0.25178230  0.49724851  0.30087831  1
  P  P48  1  0.28484049  0.03688695  0.60956433  1
  P  P49  1  0.50267902  0.05147875  0.27864646  1
  P  P50  1  0.90826589  0.23956189  0.14489487  1
  P  P51  1  0.48945276  0.98565045  0.24205527  1
  P  P52  1  0.67213555  0.76161962  0.23763754  1
  P  P53  1  0.72821635  0.36778313  0.63230583  1
  P  P54  1  0.63352971  0.53577468  0.09028977  1
  P  P55  1  0.83530250  0.32078006  0.18651851  1
  O  O56  1  0.04077514  0.59089294  0.67756436  1
  O  O57  1  0.01658783  0.51209306  0.22649578  1
  O  O58  1  0.64517279  0.17436643  0.69093774  1
  O  O59  1  0.38673535  0.93672999  0.13752094  1
  O  O60  1  0.34106635  0.11347352  0.92469362  1
  O  O61  1  0.87733935  0.25794163  0.65998405  1
  O  O62  1  0.81722220  0.55520081  0.52965058  1
  O  O63  1  0.24185229  0.09310277  0.89721576  1
  O  O64  1  0.90041806  0.63310146  0.33902979  1
  O  O65  1  0.34920957  0.72595568  0.89711026  1
  O  O66  1  0.88708642  0.77987555  0.64203165  1
  O  O67  1  0.08413996  0.16162871  0.89855419  1
  O  O68  1  0.60642906  0.00919705  0.10147154  1
  O  O69  1  0.66350177  0.00506158  0.16080805  1
  O  O70  1  0.54873379  0.69189520  0.65196126  1
  O  O71  1  0.22426931  0.71217922  0.23724909  1
  O  O72  1  0.32539970  0.74649141  0.64963290  1
  O  O73  1  0.84922341  0.65761289  0.56830860  1
  O  O74  1  0.09367477  0.36771580  0.26520237  1
  O  O75  1  0.24398964  0.97301055  0.39309772  1
  O  O76  1  0.89204656  0.63113863  0.79481130  1
  O  O77  1  0.50263709  0.57690388  0.49251769  1
  O  O78  1  0.19524299  0.72245212  0.28077236  1
  O  O79  1  0.02431597  0.64547230  0.17711068  1
  O  O80  1  0.94045858  0.95392858  0.91486439  1
  O  O81  1  0.37015870  0.01545662  0.92831856  1
  O  O82  1  0.42818415  0.96665482  0.96361998  1
  O  O83  1  0.85300946  0.29444889  0.38509773  1
  O  O84  1  0.85113667  0.31692201  0.16949275  1
  O  O85  1  0.55680126  0.93615477  0.69602980  1
  O  O86  1  0.57006117  0.09717649  0.61500723  1
  O  O87  1  0.99005385  0.14008402  0.51832965  1
  O  O88  1  0.87737307  0.74076862  0.69701574  1
  O  O89  1  0.70248408  0.35949115  0.29359184  1
  O  O90  1  0.80936116  0.81011339  0.86707232  1
  O  O91  1  0.91324055  0.51134240  0.50151629  1
  O  O92  1  0.79829518  0.64996393  0.70196688  1
  O  O93  1  0.79579267  0.89000534  0.33799516  1
  O  O94  1  0.37558295  0.09398194  0.57828014  1
  O  O95  1  0.03594227  0.46559802  0.54264463  1
  O  O96  1  0.28654125  0.59083326  0.03050025  1
  O  O97  1  0.03734819  0.82260056  0.36019064  1
  O  O98  1  0.12706051  0.52224326  0.76999355  1
  O  O99  1  0.21582103  0.62289048  0.08534746  1
  O  O100  1  0.05168172  0.53135463  0.54063512  1
  O  O101  1  0.63742990  0.72609133  0.97585208  1
  O  O102  1  0.51630035  0.32295647  0.79518619  1
  O  O103  1  0.27083225  0.43897142  0.07845638  1
  O  O104  1  0.02535074  0.96264841  0.83598012  1
  O  O105  1  0.69597421  0.40895294  0.17329432  1
  O  O106  1  0.15643704  0.25024290  0.54922666  1
  O  O107  1  0.71459592  0.66019738  0.27993390  1
  O  O108  1  0.95486528  0.73789692  0.55435405  1
  O  O109  1  0.61172075  0.41960006  0.24773099  1
  O  O110  1  0.35597268  0.75784611  0.01439349  1
  O  O111  1  0.11607264  0.04600264  0.04072880  1
  O  O112  1  0.85546058  0.70365786  0.47417383  1
  O  O113  1  0.09783416  0.49161588  0.47347177  1
  O  O114  1  0.17320187  0.43385165  0.39850473  1
  O  O115  1  0.61585010  0.63509365  0.04530401  1
  O  O116  1  0.37461261  0.62585992  0.50313626  1
  O  O117  1  0.85648984  0.65869363  0.16293443  1
  O  O118  1  0.07056875  0.64241928  0.02651131  1
  O  O119  1  0.58577558  0.94023024  0.57547418  1
  O  O120  1  0.38816993  0.64328822  0.45825289  1
  O  O121  1  0.54561679  0.94146481  0.38610264  1
  O  O122  1  0.96119056  0.90535064  0.19579113  1
  O  O123  1  0.06936130  0.10077800  0.01822183  1
  O  O124  1  0.09444296  0.68300677  0.07118865  1
  O  O125  1  0.31897563  0.84487531  0.02327194  1
  O  O126  1  0.81446848  0.28185477  0.11816483  1
  O  O127  1  0.69673717  0.62894285  0.87747201  1
  O  O128  1  0.73507104  0.80348093  0.28203457  1
  O  O129  1  0.17743954  0.75061475  0.80683474  1
  O  O130  1  0.99050514  0.41261768  0.37201809  1
  O  O131  1  0.77641296  0.34080354  0.93075733  1
  O  O132  1  0.85841275  0.42899403  0.75087107  1
  O  O133  1  0.75454287  0.10312387  0.90255291  1
  O  O134  1  0.50525237  0.82645747  0.32004960  1
  O  O135  1  0.89552323  0.38920168  0.01083765  1
  O  O136  1  0.90538198  0.09128668  0.31931364  1
  O  O137  1  0.95006197  0.95060715  0.57343789  1
  O  O138  1  0.63183721  0.44844552  0.29321077  1
  O  O139  1  0.32866455  0.67251846  0.75237453  1
  O  O140  1  0.79157904  0.78961814  0.09120610  1
  O  O141  1  0.49442030  0.05755876  0.54952888  1
  O  O142  1  0.44153050  0.88770418  0.35091501  1
  O  O143  1  0.11706702  0.14299168  0.76151063  1
  O  O144  1  0.61821806  0.10112268  0.08410681  1
  O  O145  1  0.70096913  0.07276301  0.82186006  1
  O  O146  1  0.70624223  0.08134878  0.08483771  1
  O  O147  1  0.98663958  0.37427080  0.37064215  1
  O  O148  1  0.81279957  0.94724858  0.98600106  1
  O  O149  1  0.75337819  0.37625959  0.08350072  1
  O  O150  1  0.77714692  0.55840425  0.42422201  1
  O  O151  1  0.90635439  0.11119748  0.49262510  1
