# generated using pymatgen
data_Li6Si(ClO2)2
_symmetry_space_group_name_H-M   Pna2_1
_cell_length_a   10.52040000
_cell_length_b   6.07560000
_cell_length_c   9.95300000
_cell_angle_alpha   90.00000000
_cell_angle_beta   90.00000000
_cell_angle_gamma   90.00000000
_symmetry_Int_Tables_number   33
_chemical_formula_structural   Li6Si(ClO2)2
_chemical_formula_sum   'Li24 Si4 Cl8 O16'
_cell_volume   636.17328851
_cell_formula_units_Z   4
loop_
 _symmetry_equiv_pos_site_id
 _symmetry_equiv_pos_as_xyz
  1  'x, y, z'
  2  '-x, -y, z+1/2'
  3  '-x+1/2, y+1/2, z+1/2'
  4  'x+1/2, -y+1/2, z'
loop_
 _atom_site_type_symbol
 _atom_site_label
 _atom_site_symmetry_multiplicity
 _atom_site_fract_x
 _atom_site_fract_y
 _atom_site_fract_z
 _atom_site_occupancy
  Li  Li0  4  0.00170000  0.49100000  0.36300000  1
  Li  Li1  4  0.02380000  0.25400000  0.65400000  1
  Li  Li2  4  0.11620000  0.83800000  0.66400000  1
  Li  Li3  4  0.13630000  0.10200000  0.15800000  1
  Li  Li4  4  0.23300000  0.70300000  0.91900000  1
  Li  Li5  4  0.24520000  0.25400000  0.84900000  1
  Si  Si6  4  0.00090000  0.99720000  0.39920000  1
  Cl  Cl7  4  0.16643000  0.50520000  0.15663000  1
  Cl  Cl8  4  0.16790000  0.50590000  0.53638000  1
  O  O9  4  0.00160000  0.99430000  0.56360000  1
  O  O10  4  0.06950000  0.22280000  0.83840000  1
  O  O11  4  0.07400000  0.78260000  0.84480000  1
  O  O12  4  0.14850000  0.00400000  0.34270000  1
