# generated using pymatgen
data_Li16.008Sn4Se4.344S11.656
_symmetry_space_group_name_H-M   Pnma
_cell_length_a   14.09340000
_cell_length_b   8.07139000
_cell_length_c   6.46112000
_cell_angle_alpha   90.00000000
_cell_angle_beta   90.00000000
_cell_angle_gamma   90.00000000
_symmetry_Int_Tables_number   62
_chemical_formula_structural   Li16.008Sn4Se4.344S11.656
_chemical_formula_sum   'Li16.008 Sn4 Se4.344 S11.656'
_cell_volume   734.97390148
_cell_formula_units_Z   1
loop_
 _symmetry_equiv_pos_site_id
 _symmetry_equiv_pos_as_xyz
  1  'x, y, z'
  2  '-x, -y, -z'
  3  '-x+1/2, -y, z+1/2'
  4  'x+1/2, y, -z+1/2'
  5  'x+1/2, -y+1/2, -z+1/2'
  6  '-x+1/2, y+1/2, z+1/2'
  7  '-x, y+1/2, -z'
  8  'x, -y+1/2, z'
loop_
 _atom_site_type_symbol
 _atom_site_label
 _atom_site_symmetry_multiplicity
 _atom_site_fract_x
 _atom_site_fract_y
 _atom_site_fract_z
 _atom_site_occupancy
  Li  Li0  4  0.06846750  0.25000000  0.65734247  0.569
  Li  Li1  8  0.04800839  0.02919054  0.53345482  0.251
  Li  Li2  8  0.17618497  0.50739539  0.34243489  1.0
  Li  Li3  4  0.08446249  0.25000000  0.86169490  0.431
  Li  Li4  4  0.22451310  0.25000000  0.97032769  0.5
  Sn  Sn5  4  0.08155222  0.75000000  0.87578224  1.0
  S  S6  8  0.18246019  0.50704265  0.74589078  0.664
  Se  Se7  8  0.18246019  0.50704265  0.74589078  0.336
  S  S8  4  0.07703831  0.25000000  0.24163701  0.786
  Se  Se9  4  0.07703831  0.25000000  0.24163701  0.214
  S  S10  4  0.09841461  0.75000000  0.23900279  0.8
  Se  Se11  4  0.09841461  0.75000000  0.23900279  0.2
