# generated using pymatgen
data_LiTa2PO8
_symmetry_space_group_name_H-M   C2/c
_cell_length_a   9.71545400
_cell_length_b   11.53580000
_cell_length_c   10.69708000
_cell_angle_alpha   90.00000000
_cell_angle_beta   90.03550000
_cell_angle_gamma   90.00000000
_symmetry_Int_Tables_number   15
_chemical_formula_structural   LiTa2PO8
_chemical_formula_sum   'Li8.0 Ta16 P8 O64'
_cell_volume   1198.88072583
_cell_formula_units_Z   8
loop_
 _symmetry_equiv_pos_site_id
 _symmetry_equiv_pos_as_xyz
  1  'x, y, z'
  2  '-x, -y, -z'
  3  '-x, y, -z+1/2'
  4  'x, -y, z+1/2'
  5  'x+1/2, y+1/2, z'
  6  '-x+1/2, -y+1/2, -z'
  7  '-x+1/2, y+1/2, -z+1/2'
  8  'x+1/2, -y+1/2, z+1/2'
loop_
 _atom_site_type_symbol
 _atom_site_label
 _atom_site_symmetry_multiplicity
 _atom_site_fract_x
 _atom_site_fract_y
 _atom_site_fract_z
 _atom_site_occupancy
  Li  Li0  8  0.09488324  0.39330095  0.40384829  0.21
  Li  Li1  4  0.00000000  0.50000000  0.00000000  0.14
  Li  Li2  8  0.23852627  0.34209917  0.14484246  0.72
  Ta  Ta3  8  0.24295065  0.09797762  0.23957445  1.0
  Ta  Ta4  4  0.00000000  0.00000000  0.00000000  1.0
  Ta  Ta5  4  0.00000000  0.35717801  0.25000000  1.0
  P  P6  8  0.00349079  0.30122421  0.57225248  1.0
  O  O7  8  0.04190395  0.15916593  0.55173908  1.0
  O  O8  8  0.06115382  0.33658102  0.07864964  1.0
  O  O9  8  0.12240042  0.04854069  0.10891922  1.0
  O  O10  8  0.12919774  0.36655308  0.58937805  1.0
  O  O11  8  0.13110229  0.31168996  0.84120302  1.0
  O  O12  8  0.14490774  0.22264331  0.28818763  1.0
  O  O13  8  0.15160961  0.00369119  0.87022507  1.0
  O  O14  8  0.15223399  0.45897952  0.28436105  1.0
