# generated using pymatgen
data_Li2CoGe3O8
_symmetry_space_group_name_H-M   P4_332
_cell_length_a   8.20980000
_cell_length_b   8.20980000
_cell_length_c   8.20980000
_cell_angle_alpha   90.00000000
_cell_angle_beta   90.00000000
_cell_angle_gamma   90.00000000
_symmetry_Int_Tables_number   212
_chemical_formula_structural   Li2CoGe3O8
_chemical_formula_sum   'Li8.0 Co4 Ge12 O32'
_cell_volume   553.34721953
_cell_formula_units_Z   4
loop_
 _symmetry_equiv_pos_site_id
 _symmetry_equiv_pos_as_xyz
  1  'x, y, z'
  2  '-y+3/4, x+1/4, z+3/4'
  3  '-x+1/2, -y, z+1/2'
  4  'y+3/4, -x+3/4, z+1/4'
  5  'x+1/2, -y+1/2, -z'
  6  '-y+1/4, -x+1/4, -z+1/4'
  7  '-x, y+1/2, -z+1/2'
  8  'y+1/4, x+3/4, -z+3/4'
  9  'z, x, y'
  10  'z+3/4, -y+3/4, x+1/4'
  11  'z+1/2, -x+1/2, -y'
  12  'z+1/4, y+3/4, -x+3/4'
  13  '-z, x+1/2, -y+1/2'
  14  '-z+1/4, -y+1/4, -x+1/4'
  15  '-z+1/2, -x, y+1/2'
  16  '-z+3/4, y+1/4, x+3/4'
  17  'y, z, x'
  18  'x+1/4, z+3/4, -y+3/4'
  19  '-y, z+1/2, -x+1/2'
  20  '-x+3/4, z+1/4, y+3/4'
  21  '-y+1/2, -z, x+1/2'
  22  '-x+1/4, -z+1/4, -y+1/4'
  23  'y+1/2, -z+1/2, -x'
  24  'x+3/4, -z+3/4, y+1/4'
loop_
 _atom_site_type_symbol
 _atom_site_label
 _atom_site_symmetry_multiplicity
 _atom_site_fract_x
 _atom_site_fract_y
 _atom_site_fract_z
 _atom_site_occupancy
  Li  Li0  4  0.12500000  0.87500000  0.37500000  0.9
  Co  Co1  4  0.12500000  0.87500000  0.37500000  0.1
  Li  Li2  8  0.01237384  0.01237384  0.01237384  0.55
  Co  Co3  8  0.01237384  0.01237384  0.01237384  0.45
  Ge  Ge4  12  0.11825200  0.62500000  0.13174800  1.0
  O  O5  24  0.07950212  0.11109255  0.37564362  1.0
  O  O6  8  0.12407422  0.62407422  0.87592578  1.0
