# generated using pymatgen
data_Li3BiO3
_symmetry_space_group_name_H-M   P-1
_cell_length_a   9.02380000
_cell_length_b   9.23530000
_cell_length_c   9.73020000
_cell_angle_alpha   65.93100000
_cell_angle_beta   72.49600000
_cell_angle_gamma   89.29100000
_symmetry_Int_Tables_number   2
_chemical_formula_structural   Li3BiO3
_chemical_formula_sum   'Li24 Bi8 O24'
_cell_volume   700.41793999
_cell_formula_units_Z   8
loop_
 _symmetry_equiv_pos_site_id
 _symmetry_equiv_pos_as_xyz
  1  'x, y, z'
  2  '-x, -y, -z'
loop_
 _atom_site_type_symbol
 _atom_site_label
 _atom_site_symmetry_multiplicity
 _atom_site_fract_x
 _atom_site_fract_y
 _atom_site_fract_z
 _atom_site_occupancy
  Li  Li0  2  0.05112776  0.33473473  0.42812322  1.0
  Li  Li1  2  0.08453325  0.49115119  0.06983745  1.0
  Li  Li2  2  0.09428255  0.92597011  0.51111187  1.0
  Li  Li3  2  0.15495997  0.61909047  0.64030879  1.0
  Li  Li4  2  0.31336847  0.44501112  0.22250357  1.0
  Li  Li5  2  0.32159584  0.14475781  0.40003567  1.0
  Li  Li6  2  0.33265957  0.51615175  0.84086201  1.0
  Li  Li7  2  0.34045489  0.88574071  0.34762460  1.0
  Li  Li8  2  0.42780803  0.57117334  0.37441244  1.0
  Li  Li9  2  0.47386887  0.71328084  0.51995658  1.0
  Li  Li10  2  0.49058160  0.28767853  0.04832015  1.0
  Li  Li11  2  0.49700176  0.87985460  0.10592049  1.0
  Bi  Bi12  2  0.14419076  0.15758758  0.14821802  1.0
  Bi  Bi13  2  0.14443016  0.73222208  0.18761827  1.0
  Bi  Bi14  2  0.24605909  0.29852163  0.69572793  1.0
  Bi  Bi15  2  0.27520258  0.87078326  0.76012870  1.0
  O  O16  2  0.03775567  0.49356700  0.26840478  1.0
  O  O17  2  0.12579704  0.74649765  0.41193270  1.0
  O  O18  2  0.12807088  0.65745180  0.86568095  1.0
  O  O19  2  0.14039330  0.12267900  0.36406789  1.0
  O  O20  2  0.27973097  0.33926525  0.44703994  1.0
  O  O21  2  0.28636099  0.38558789  0.05393056  1.0
  O  O22  2  0.29512616  0.92273040  0.52764058  1.0
  O  O23  2  0.33536089  0.51779719  0.63589959  1.0
  O  O24  2  0.35574078  0.05526252  0.12159973  1.0
  O  O25  2  0.38870896  0.65120097  0.17233727  1.0
  O  O26  2  0.45980172  0.73251780  0.76205497  1.0
  O  O27  2  0.46842979  0.22390333  0.67920979  1.0
