# generated using pymatgen
data_LiGaO2
_symmetry_space_group_name_H-M   Pna2_1
_cell_length_a   5.40200000
_cell_length_b   6.37200000
_cell_length_c   5.00700000
_cell_angle_alpha   90.00000000
_cell_angle_beta   90.00000000
_cell_angle_gamma   90.00000000
_symmetry_Int_Tables_number   33
_chemical_formula_structural   LiGaO2
_chemical_formula_sum   'Li4 Ga4 O8'
_cell_volume   172.34867081
_cell_formula_units_Z   4
loop_
 _symmetry_equiv_pos_site_id
 _symmetry_equiv_pos_as_xyz
  1  'x, y, z'
  2  '-x, -y, z+1/2'
  3  '-x+1/2, y+1/2, z+1/2'
  4  'x+1/2, -y+1/2, z'
loop_
 _atom_site_type_symbol
 _atom_site_label
 _atom_site_symmetry_multiplicity
 _atom_site_fract_x
 _atom_site_fract_y
 _atom_site_fract_z
 _atom_site_occupancy
  Li  Li0  4  0.07875022  0.61510040  0.97635010  1.0
  Ga  Ga1  4  0.07981227  0.13464151  0.00143580  1.0
  O  O2  4  0.08711462  0.09764641  0.38096306  1.0
  O  O3  4  0.12148633  0.64056413  0.39634760  1.0
