# generated using pymatgen
data_LiYO2
_symmetry_space_group_name_H-M   P2_1/c
_cell_length_a   6.12000000
_cell_length_b   6.18500000
_cell_length_c   6.21000000
_cell_angle_alpha   90.00000000
_cell_angle_beta   118.80000000
_cell_angle_gamma   90.00000000
_symmetry_Int_Tables_number   14
_chemical_formula_structural   LiYO2
_chemical_formula_sum   'Li4 Y4 O8'
_cell_volume   205.98654279
_cell_formula_units_Z   4
loop_
 _symmetry_equiv_pos_site_id
 _symmetry_equiv_pos_as_xyz
  1  'x, y, z'
  2  '-x, -y, -z'
  3  '-x, y+1/2, -z+1/2'
  4  'x, -y+1/2, z+1/2'
loop_
 _atom_site_type_symbol
 _atom_site_label
 _atom_site_symmetry_multiplicity
 _atom_site_fract_x
 _atom_site_fract_y
 _atom_site_fract_z
 _atom_site_occupancy
  Li  Li0  4  0.26362204  0.62561888  0.01465645  1.0
  Y  Y1  4  0.24551088  0.12518489  0.99630658  1.0
  O  O2  4  0.00905208  0.65065155  0.31620218  1.0
  O  O3  4  0.45844273  0.10087589  0.74342284  1.0
