# generated using pymatgen
data_Li2PNO2
_symmetry_space_group_name_H-M   Cmc2_1
_cell_length_a   9.06920000
_cell_length_b   5.39990000
_cell_length_c   4.68560000
_cell_angle_alpha   90.00000000
_cell_angle_beta   90.00000000
_cell_angle_gamma   90.00000000
_symmetry_Int_Tables_number   36
_chemical_formula_structural   Li2PNO2
_chemical_formula_sum   'Li8 P4 N4 O8'
_cell_volume   229.46682554
_cell_formula_units_Z   4
loop_
 _symmetry_equiv_pos_site_id
 _symmetry_equiv_pos_as_xyz
  1  'x, y, z'
  2  '-x, -y, z+1/2'
  3  '-x, y, z'
  4  'x, -y, z+1/2'
  5  'x+1/2, y+1/2, z'
  6  '-x+1/2, -y+1/2, z+1/2'
  7  '-x+1/2, y+1/2, z'
  8  'x+1/2, -y+1/2, z+1/2'
loop_
 _atom_site_type_symbol
 _atom_site_label
 _atom_site_symmetry_multiplicity
 _atom_site_fract_x
 _atom_site_fract_y
 _atom_site_fract_z
 _atom_site_occupancy
  Li  Li0  8  0.17653744  0.12371643  0.50047774  1.0
  P  P1  4  0.00000000  0.32813588  0.01144128  1.0
  N  N2  4  0.00000000  0.38470071  0.35528411  1.0
  O  O3  8  0.13791965  0.20015188  0.92238587  1.0
