# generated using pymatgen
data_LiPS3
_symmetry_space_group_name_H-M   C2/m
_cell_length_a   11.11569000
_cell_length_b   7.00704000
_cell_length_c   6.52514000
_cell_angle_alpha   90.00000000
_cell_angle_beta   125.57170000
_cell_angle_gamma   90.00000000
_symmetry_Int_Tables_number   12
_chemical_formula_structural   LiPS3
_chemical_formula_sum   'Li4 P4 S12'
_cell_volume   413.38881230
_cell_formula_units_Z   4
loop_
 _symmetry_equiv_pos_site_id
 _symmetry_equiv_pos_as_xyz
  1  'x, y, z'
  2  '-x, -y, -z'
  3  '-x, y, -z'
  4  'x, -y, z'
  5  'x+1/2, y+1/2, z'
  6  '-x+1/2, -y+1/2, -z'
  7  '-x+1/2, y+1/2, -z'
  8  'x+1/2, -y+1/2, z'
loop_
 _atom_site_type_symbol
 _atom_site_label
 _atom_site_symmetry_multiplicity
 _atom_site_fract_x
 _atom_site_fract_y
 _atom_site_fract_z
 _atom_site_occupancy
  Li  Li0  4  0.00000000  0.24070000  0.00000000  1.0
  P  P1  4  0.15385000  0.00000000  0.58060000  1.0
  S  S2  4  0.00000000  0.22120000  0.50000000  1.0
  S  S3  4  0.18080000  0.50000000  0.06150000  1.0
  S  S4  4  0.19780000  0.00000000  0.32610000  1.0
