# generated using pymatgen
data_Li6Cu(B2O5)2
_symmetry_space_group_name_H-M   P-1
_cell_length_a   3.31218000
_cell_length_b   6.68272000
_cell_length_c   9.27858000
_cell_angle_alpha   78.84430000
_cell_angle_beta   89.75960000
_cell_angle_gamma   86.61430000
_symmetry_Int_Tables_number   2
_chemical_formula_structural   Li6Cu(B2O5)2
_chemical_formula_sum   'Li6 Cu1 B4 O10'
_cell_volume   201.13780352
_cell_formula_units_Z   1
loop_
 _symmetry_equiv_pos_site_id
 _symmetry_equiv_pos_as_xyz
  1  'x, y, z'
  2  '-x, -y, -z'
loop_
 _atom_site_type_symbol
 _atom_site_label
 _atom_site_symmetry_multiplicity
 _atom_site_fract_x
 _atom_site_fract_y
 _atom_site_fract_z
 _atom_site_occupancy
  Li  Li0  2  0.04902414  0.47198597  0.36757490  1.0
  Li  Li1  2  0.41823467  0.77682440  0.53574465  1.0
  Li  Li2  2  0.48726506  0.63932478  0.11150093  1.0
  Cu  Cu3  1  0.00000000  0.00000000  0.00000000  1.0
  B  B4  2  0.13103500  0.15021032  0.68132683  1.0
  B  B5  2  0.40564994  0.79313283  0.79219974  1.0
  O  O6  2  0.03800371  0.20128286  0.83147390  1.0
  O  O7  2  0.04503209  0.27233389  0.55217355  1.0
  O  O8  2  0.30565348  0.95928182  0.67727214  1.0
  O  O9  2  0.35418218  0.78085107  0.94006892  1.0
  O  O10  2  0.45556199  0.60912107  0.72982794  1.0
