# generated using pymatgen
data_La1.28Ti2O6
_symmetry_space_group_name_H-M   Pmmm
_cell_length_a   3.86380000
_cell_length_b   3.87530000
_cell_length_c   7.79010000
_cell_angle_alpha   90.00000000
_cell_angle_beta   90.00000000
_cell_angle_gamma   90.00000000
_symmetry_Int_Tables_number   47
_chemical_formula_structural   La1.28Ti2O6
_chemical_formula_sum   'La1.28 Ti2 O6'
_cell_volume   116.64415979
_cell_formula_units_Z   1
loop_
 _symmetry_equiv_pos_site_id
 _symmetry_equiv_pos_as_xyz
  1  'x, y, z'
  2  '-x, -y, -z'
  3  '-x, -y, z'
  4  'x, y, -z'
  5  'x, -y, -z'
  6  '-x, y, z'
  7  '-x, y, -z'
  8  'x, -y, z'
loop_
 _atom_site_type_symbol
 _atom_site_label
 _atom_site_symmetry_multiplicity
 _atom_site_fract_x
 _atom_site_fract_y
 _atom_site_fract_z
 _atom_site_occupancy
  La  La0  1  0.00000000  0.00000000  0.00000000  0.96
  La  La1  1  0.00000000  0.00000000  0.50000000  0.32
  Ti  Ti2  2  0.50000000  0.50000000  0.26456832  1.0
  O  O3  2  0.00000000  0.50000000  0.22585918  1.0
  O  O4  2  0.50000000  0.00000000  0.26915818  1.0
  O  O5  1  0.50000000  0.50000000  0.00000000  1.0
  O  O6  1  0.50000000  0.50000000  0.50000000  1.0
