# generated using pymatgen
data_Li16Sn4Se12.428S3.572
_symmetry_space_group_name_H-M   Pnma
_cell_length_a   14.81640000
_cell_length_b   8.16696000
_cell_length_c   6.55387000
_cell_angle_alpha   90.00000000
_cell_angle_beta   90.00000000
_cell_angle_gamma   90.00000000
_symmetry_Int_Tables_number   62
_chemical_formula_structural   Li16Sn4Se12.428S3.572
_chemical_formula_sum   'Li16 Sn4 Se12.428 S3.572'
_cell_volume   793.05068638
_cell_formula_units_Z   1
loop_
 _symmetry_equiv_pos_site_id
 _symmetry_equiv_pos_as_xyz
  1  'x, y, z'
  2  '-x, -y, -z'
  3  '-x+1/2, -y, z+1/2'
  4  'x+1/2, y, -z+1/2'
  5  'x+1/2, -y+1/2, -z+1/2'
  6  '-x+1/2, y+1/2, z+1/2'
  7  '-x, y+1/2, -z'
  8  'x, -y+1/2, z'
loop_
 _atom_site_type_symbol
 _atom_site_label
 _atom_site_symmetry_multiplicity
 _atom_site_fract_x
 _atom_site_fract_y
 _atom_site_fract_z
 _atom_site_occupancy
  Li  Li0  8  0.00210000  0.51440000  0.47900000  0.5
  Li  Li1  8  0.17500000  0.50480000  0.31560000  1
  Li  Li2  4  0.08890000  0.25000000  0.87680000  1
  Sn  Sn3  4  0.09223000  0.75000000  0.85730000  1
  S  S4  8  0.16183000  0.00240000  0.71601000  0.196
  Se  Se5  8  0.16183000  0.00240000  0.71601000  0.804
  S  S6  4  0.06840000  0.25000000  0.26980000  0.197
  Se  Se7  4  0.06840000  0.25000000  0.26980000  0.803
  S  S8  4  0.08332000  0.75000000  0.23540000  0.304
  Se  Se9  4  0.08332000  0.75000000  0.23540000  0.696
