# generated using pymatgen
data_Li6In2.03Cl12
_symmetry_space_group_name_H-M   C2/m
_cell_length_a   6.43200000
_cell_length_b   11.09300000
_cell_length_c   6.39800000
_cell_angle_alpha   90.00000000
_cell_angle_beta   109.80000000
_cell_angle_gamma   90.00000000
_symmetry_Int_Tables_number   12
_chemical_formula_structural   Li6In2.03Cl12
_chemical_formula_sum   'Li6 In2.03 Cl12'
_cell_volume   429.51059013
_cell_formula_units_Z   1
loop_
 _symmetry_equiv_pos_site_id
 _symmetry_equiv_pos_as_xyz
  1  'x, y, z'
  2  '-x, -y, -z'
  3  '-x, y, -z'
  4  'x, -y, z'
  5  'x+1/2, y+1/2, z'
  6  '-x+1/2, -y+1/2, -z'
  7  '-x+1/2, y+1/2, -z'
  8  'x+1/2, -y+1/2, z'
loop_
 _atom_site_type_symbol
 _atom_site_label
 _atom_site_symmetry_multiplicity
 _atom_site_fract_x
 _atom_site_fract_y
 _atom_site_fract_z
 _atom_site_occupancy
  Li  Li0  4  0.00000000  0.16808730  0.50000000  1.0
  Li  Li1  2  0.00000000  0.50000000  0.50000000  1.0
  In  In2  4  0.00000000  0.33248715  0.00000000  0.07
  In  In3  2  0.00000000  0.00000000  0.00000000  0.875
  Cl  Cl4  8  0.23555313  0.15998188  0.23126920  1.0
  Cl  Cl5  4  0.24471525  0.00000000  0.76115753  1.0
