# generated using pymatgen
data_Li8.694Al0.81Ge1.19S8
_symmetry_space_group_name_H-M   P-3m1
_cell_length_a   7.94780000
_cell_length_b   7.94780000
_cell_length_c   6.15528000
_cell_angle_alpha   90.00000000
_cell_angle_beta   90.00000000
_cell_angle_gamma   120.00000000
_symmetry_Int_Tables_number   164
_chemical_formula_structural   Li8.694Al0.81Ge1.19S8
_chemical_formula_sum   'Li8.694 Al0.81 Ge1.19 S8'
_cell_volume   336.72263013
_cell_formula_units_Z   1
loop_
 _symmetry_equiv_pos_site_id
 _symmetry_equiv_pos_as_xyz
  1  'x, y, z'
  2  '-x, -y, -z'
  3  '-y, x-y, z'
  4  'y, -x+y, -z'
  5  '-x+y, -x, z'
  6  'x-y, x, -z'
  7  'y, x, -z'
  8  '-y, -x, z'
  9  'x-y, -y, -z'
  10  '-x+y, y, z'
  11  '-x, -x+y, -z'
  12  'x, x-y, z'
loop_
 _atom_site_type_symbol
 _atom_site_label
 _atom_site_symmetry_multiplicity
 _atom_site_fract_x
 _atom_site_fract_y
 _atom_site_fract_z
 _atom_site_occupancy
  Li  Li0  6  0.03019933  0.51509967  0.51850000  0.461
  Li  Li1  6  0.15955017  0.31910033  0.83890000  0.767
  Li  Li2  6  0.16720017  0.33440033  0.68440000  0.221
  Ge  Ge3  2  0.33333333  0.66666667  0.13364000  0.595
  Al  Al4  2  0.33333333  0.66666667  0.13364000  0.405
  S  S5  6  0.18172983  0.36345967  0.26200000  1.0
  S  S6  2  0.33333333  0.66666667  0.77310000  1.0
