# generated using pymatgen
data_Li24.376Al7.464S23.392
_symmetry_space_group_name_H-M   C2/c
_cell_length_a   14.31901000
_cell_length_b   11.98037000
_cell_length_c   6.62700000
_cell_angle_alpha   90.00000000
_cell_angle_beta   116.92310000
_cell_angle_gamma   90.00000000
_symmetry_Int_Tables_number   15
_chemical_formula_structural   Li24.376Al7.464S23.392
_chemical_formula_sum   'Li24.376 Al7.464 S23.392'
_cell_volume   1013.62563093
_cell_formula_units_Z   1
loop_
 _symmetry_equiv_pos_site_id
 _symmetry_equiv_pos_as_xyz
  1  'x, y, z'
  2  '-x, -y, -z'
  3  '-x, y, -z+1/2'
  4  'x, -y, z+1/2'
  5  'x+1/2, y+1/2, z'
  6  '-x+1/2, -y+1/2, -z'
  7  '-x+1/2, y+1/2, -z+1/2'
  8  'x+1/2, -y+1/2, z+1/2'
loop_
 _atom_site_type_symbol
 _atom_site_label
 _atom_site_symmetry_multiplicity
 _atom_site_fract_x
 _atom_site_fract_y
 _atom_site_fract_z
 _atom_site_occupancy
  Li  Li0  8  0.01409750  0.21020071  0.74491745  0.5
  Li  Li1  8  0.01515870  0.09495905  0.25020397  0.1
  Li  Li2  8  0.02052250  0.07230322  0.28473923  0.4
  Li  Li3  8  0.07559887  0.44345417  0.65874542  0.98
  Li  Li4  8  0.18508091  0.06233623  0.81333083  1.0
  Al  Al5  8  0.18868730  0.23732835  0.24747556  0.933
  Li  Li6  8  0.18868730  0.23732835  0.24747556  0.067
  S  S7  8  0.10860852  0.40333836  0.03308537  1.0
  S  S8  8  0.11687062  0.10118773  0.05205795  0.976
  S  S9  8  0.14475649  0.23244108  0.55785544  0.948
