# generated using pymatgen
data_Li4GeO4
_symmetry_space_group_name_H-M   Cmcm
_cell_length_a   7.76600000
_cell_length_b   7.35700000
_cell_length_c   6.04900000
_cell_angle_alpha   90.00000000
_cell_angle_beta   90.00000000
_cell_angle_gamma   90.00000000
_symmetry_Int_Tables_number   63
_chemical_formula_structural   Li4GeO4
_chemical_formula_sum   'Li16 Ge4 O16'
_cell_volume   345.60636064
_cell_formula_units_Z   4
loop_
 _symmetry_equiv_pos_site_id
 _symmetry_equiv_pos_as_xyz
  1  'x, y, z'
  2  '-x, -y, -z'
  3  '-x, -y, z+1/2'
  4  'x, y, -z+1/2'
  5  'x, -y, -z'
  6  '-x, y, z'
  7  '-x, y, -z+1/2'
  8  'x, -y, z+1/2'
  9  'x+1/2, y+1/2, z'
  10  '-x+1/2, -y+1/2, -z'
  11  '-x+1/2, -y+1/2, z+1/2'
  12  'x+1/2, y+1/2, -z+1/2'
  13  'x+1/2, -y+1/2, -z'
  14  '-x+1/2, y+1/2, z'
  15  '-x+1/2, y+1/2, -z+1/2'
  16  'x+1/2, -y+1/2, z+1/2'
loop_
 _atom_site_type_symbol
 _atom_site_label
 _atom_site_symmetry_multiplicity
 _atom_site_fract_x
 _atom_site_fract_y
 _atom_site_fract_z
 _atom_site_occupancy
  Li  Li0  8  0.14960532  0.28071420  0.75000000  1.0
  Li  Li1  8  0.15725473  0.00000000  0.00000000  1.0
  Ge  Ge2  4  0.00000000  0.33562365  0.25000000  1.0
  O  O3  8  0.00000000  0.20087524  0.00700026  1.0
  O  O4  8  0.18525375  0.47153097  0.25000000  1.0
