# generated using pymatgen
data_Li3YCl6
_symmetry_space_group_name_H-M   P-3m1
_cell_length_a   11.20933700
_cell_length_b   11.20933700
_cell_length_c   6.04694100
_cell_angle_alpha   90.00000000
_cell_angle_beta   90.00000000
_cell_angle_gamma   120.00000000
_symmetry_Int_Tables_number   164
_chemical_formula_structural   Li3YCl6
_chemical_formula_sum   'Li9 Y3 Cl18'
_cell_volume   658.00048706
_cell_formula_units_Z   3
loop_
 _symmetry_equiv_pos_site_id
 _symmetry_equiv_pos_as_xyz
  1  'x, y, z'
  2  '-x, -y, -z'
  3  '-y, x-y, z'
  4  'y, -x+y, -z'
  5  '-x+y, -x, z'
  6  'x-y, x, -z'
  7  'y, x, -z'
  8  '-y, -x, z'
  9  'x-y, -y, -z'
  10  '-x+y, y, z'
  11  '-x, -x+y, -z'
  12  'x, x-y, z'
loop_
 _atom_site_type_symbol
 _atom_site_label
 _atom_site_symmetry_multiplicity
 _atom_site_fract_x
 _atom_site_fract_y
 _atom_site_fract_z
 _atom_site_occupancy
  Li  Li0  6  0.00000000  0.32562724  0.50000000  0.87538
  Li  Li1  6  0.00000000  0.32611712  0.00000000  0.62462
  Y  Y2  2  0.33333333  0.66666667  0.48696610  0.56592
  Y  Y3  2  0.33333333  0.66666667  0.98118561  0.43408
  Y  Y4  1  0.00000000  0.00000000  0.00000000  1.0
  Cl  Cl5  6  0.10836711  0.21673423  0.77651019  1.0
  Cl  Cl6  6  0.12545527  0.56272764  0.75056223  1.0
  Cl  Cl7  6  0.21024526  0.42049052  0.27835218  1.0
