# generated using pymatgen
data_Li2SiS3
_symmetry_space_group_name_H-M   Cmc2_1
_cell_length_a   6.74418792
_cell_length_b   11.62999746
_cell_length_c   5.96390060
_cell_angle_alpha   90.00000000
_cell_angle_beta   90.00000000
_cell_angle_gamma   90.00000000
_symmetry_Int_Tables_number   36
_chemical_formula_structural   Li2SiS3
_chemical_formula_sum   'Li8 Si4 S12'
_cell_volume   467.77787787
_cell_formula_units_Z   4
loop_
 _symmetry_equiv_pos_site_id
 _symmetry_equiv_pos_as_xyz
  1  'x, y, z'
  2  '-x, -y, z+1/2'
  3  '-x, y, z'
  4  'x, -y, z+1/2'
  5  'x+1/2, y+1/2, z'
  6  '-x+1/2, -y+1/2, z+1/2'
  7  '-x+1/2, y+1/2, z'
  8  'x+1/2, -y+1/2, z+1/2'
loop_
 _atom_site_type_symbol
 _atom_site_label
 _atom_site_symmetry_multiplicity
 _atom_site_fract_x
 _atom_site_fract_y
 _atom_site_fract_z
 _atom_site_occupancy
  Li  Li0  8  0.16642467  0.34294592  0.99110979  1
  Si  Si1  4  0.00000000  0.16519521  0.50296957  1
  S  S2  8  0.15111187  0.30881165  0.58957032  1
  S  S3  4  0.00000000  0.13864483  0.13087221  1
