# generated using pymatgen
data_Li8SiS8
_symmetry_space_group_name_H-M   'P 1'
_cell_length_a   6.12500000
_cell_length_b   6.90300000
_cell_length_c   7.78700000
_cell_angle_alpha   90.00000000
_cell_angle_beta   90.00000000
_cell_angle_gamma   90.87700000
_symmetry_Int_Tables_number   1
_chemical_formula_structural   Li8SiS8
_chemical_formula_sum   'Li8 Si1 S8'
_cell_volume   329.20260541
_cell_formula_units_Z   1
loop_
 _symmetry_equiv_pos_site_id
 _symmetry_equiv_pos_as_xyz
  1  'x, y, z'
loop_
 _atom_site_type_symbol
 _atom_site_label
 _atom_site_symmetry_multiplicity
 _atom_site_fract_x
 _atom_site_fract_y
 _atom_site_fract_z
 _atom_site_occupancy
  Li  Li0  1  0.26800606  0.62545988  0.95071431  1
  Li  Li1  1  0.84400548  0.40134152  0.15601864  1
  Li  Li2  1  0.39888499  0.94191639  0.86617615  1
  Li  Li3  1  0.03009015  0.29192742  0.02058449  1
  Li  Li4  1  0.81817503  0.16755736  0.21233911  1
  Li  Li5  1  0.47524357  0.81659549  0.30424224  1
  Li  Li6  1  0.38814711  0.56805498  0.29122914  1
  Li  Li7  1  0.63363816  0.86050614  0.29214465  1
  Si  Si8  1  0.80032622  0.54393002  0.78517596  1
  S  S9  1  0.95354959  0.48576556  0.59241457  1
  S  S10  1  0.93494841  0.39245515  0.17052412  1
  S  S11  1  0.19160265  0.05111446  0.96563203  1
  S  S12  1  0.31576697  0.69538623  0.09767211  1
  S  S13  1  0.50482309  0.55984751  0.12203823  1
  S  S14  1  0.74122002  0.96561148  0.90932040  1
  S  S15  1  0.47993198  0.33747772  0.31171108  1
  S  S16  1  0.03041537  0.45328972  0.18485446  1
