# generated using pymatgen
data_LiH7C3NClO
_symmetry_space_group_name_H-M   P2_1/c
_cell_length_a   5.83900000
_cell_length_b   6.39000000
_cell_length_c   15.96100000
_cell_angle_alpha   90.00000000
_cell_angle_beta   98.82600000
_cell_angle_gamma   90.00000000
_symmetry_Int_Tables_number   14
_chemical_formula_structural   LiH7C3NClO
_chemical_formula_sum   'Li4 H28 C12 N4 Cl4 O4'
_cell_volume   588.47253529
_cell_formula_units_Z   4
loop_
 _symmetry_equiv_pos_site_id
 _symmetry_equiv_pos_as_xyz
  1  'x, y, z'
  2  '-x, -y, -z'
  3  '-x, y+1/2, -z+1/2'
  4  'x, -y+1/2, z+1/2'
loop_
 _atom_site_type_symbol
 _atom_site_label
 _atom_site_symmetry_multiplicity
 _atom_site_fract_x
 _atom_site_fract_y
 _atom_site_fract_z
 _atom_site_occupancy
  Li  Li0  4  0.25730000  0.00450000  0.99520000  1
  H  H1  4  0.01920000  0.10280000  0.34470000  1
  H  H2  4  0.09990000  0.18300000  0.25880000  1
  H  H3  4  0.14030000  0.17320000  0.84190000  1
  H  H4  4  0.29810000  0.71380000  0.81290000  1
  H  H5  4  0.34050000  0.59420000  0.07750000  1
  H  H6  4  0.39640000  0.57920000  0.74160000  1
  H  H7  4  0.43240000  0.15510000  0.67600000  1
  C  C8  4  0.13720000  0.18260000  0.32080000  1
  C  C9  4  0.41030000  0.60630000  0.80260000  1
  C  C10  4  0.48280000  0.66680000  0.09280000  1
  N  N11  4  0.36420000  0.08590000  0.34631000  1
  Cl  Cl12  4  0.03743000  0.19999000  0.07808000  1
  O  O13  4  0.48840000  0.16750000  0.94649000  1
