# generated using pymatgen
data_Na0.4Li0.1La0.5Nb2O6
_symmetry_space_group_name_H-M   P4/mmm
_cell_length_a   3.91500000
_cell_length_b   3.91500000
_cell_length_c   7.86100000
_cell_angle_alpha   90.00000000
_cell_angle_beta   90.00000000
_cell_angle_gamma   90.00000000
_symmetry_Int_Tables_number   123
_chemical_formula_structural   Na0.4Li0.1La0.5Nb2O6
_chemical_formula_sum   'Na0.4 Li0.1 La0.5 Nb2 O6'
_cell_volume   120.48731573
_cell_formula_units_Z   1
loop_
 _symmetry_equiv_pos_site_id
 _symmetry_equiv_pos_as_xyz
  1  'x, y, z'
  2  '-x, -y, -z'
  3  '-y, x, z'
  4  'y, -x, -z'
  5  '-x, -y, z'
  6  'x, y, -z'
  7  'y, -x, z'
  8  '-y, x, -z'
  9  'x, -y, -z'
  10  '-x, y, z'
  11  '-y, -x, -z'
  12  'y, x, z'
  13  '-x, y, -z'
  14  'x, -y, z'
  15  'y, x, -z'
  16  '-y, -x, z'
loop_
 _atom_site_type_symbol
 _atom_site_label
 _atom_site_symmetry_multiplicity
 _atom_site_fract_x
 _atom_site_fract_y
 _atom_site_fract_z
 _atom_site_occupancy
  La  La0  1  0.00000000  0.00000000  0.00000000  0.5
  Li  Li1  1  0.00000000  0.00000000  0.00000000  0.1
  Na  Na2  1  0.00000000  0.00000000  0.00000000  0.4
  Nb  Nb3  2  0.50000000  0.50000000  0.26110650  1.0
  O  O4  4  0.00000000  0.50000000  0.31029187  1.0
  O  O5  1  0.50000000  0.50000000  0.00000000  1.0
  O  O6  1  0.50000000  0.50000000  0.50000000  1.0
