# generated using pymatgen
data_Li3VO4
_symmetry_space_group_name_H-M   Pmn2_1
_cell_length_a   6.32590000
_cell_length_b   5.44600000
_cell_length_c   4.94690000
_cell_angle_alpha   90.00000000
_cell_angle_beta   90.00000000
_cell_angle_gamma   90.00000000
_symmetry_Int_Tables_number   31
_chemical_formula_structural   Li3VO4
_chemical_formula_sum   'Li6 V2 O8'
_cell_volume   170.42491679
_cell_formula_units_Z   2
loop_
 _symmetry_equiv_pos_site_id
 _symmetry_equiv_pos_as_xyz
  1  'x, y, z'
  2  '-x+1/2, -y, z+1/2'
  3  '-x, y, z'
  4  'x+1/2, -y, z+1/2'
loop_
 _atom_site_type_symbol
 _atom_site_label
 _atom_site_symmetry_multiplicity
 _atom_site_fract_x
 _atom_site_fract_y
 _atom_site_fract_z
 _atom_site_occupancy
  Li  Li0  4  0.24111006  0.32920409  0.98401917  1.0
  Li  Li1  2  0.00000000  0.17148876  0.47798037  1.0
  V  V2  2  0.00000000  0.82531337  0.98746011  1.0
  O  O3  4  0.23480022  0.69793285  0.90889368  1.0
  O  O4  2  0.00000000  0.13086833  0.89800751  1.0
  O  O5  2  0.00000000  0.83241350  0.35677391  1.0
