# generated using pymatgen
data_Li9AlS8
_symmetry_space_group_name_H-M   'P 1'
_cell_length_a   6.23500000
_cell_length_b   6.84300000
_cell_length_c   7.83300000
_cell_angle_alpha   90.00000000
_cell_angle_beta   90.00000000
_cell_angle_gamma   89.84600000
_symmetry_Int_Tables_number   1
_chemical_formula_structural   Li9AlS8
_chemical_formula_sum   'Li9 Al1 S8'
_cell_volume   334.20239327
_cell_formula_units_Z   1
loop_
 _symmetry_equiv_pos_site_id
 _symmetry_equiv_pos_as_xyz
  1  'x, y, z'
loop_
 _atom_site_type_symbol
 _atom_site_label
 _atom_site_symmetry_multiplicity
 _atom_site_fract_x
 _atom_site_fract_y
 _atom_site_fract_z
 _atom_site_occupancy
  Li  Li0  1  0.73199394  0.37454012  0.95071431  1
  Li  Li1  1  0.15599452  0.59865848  0.15601864  1
  Li  Li2  1  0.60111501  0.05808361  0.86617615  1
  Li  Li3  1  0.96990985  0.70807258  0.02058449  1
  Li  Li4  1  0.18182497  0.83244264  0.21233911  1
  Li  Li5  1  0.52475643  0.18340451  0.30424224  1
  Li  Li6  1  0.61185289  0.43194502  0.29122914  1
  Li  Li7  1  0.36636184  0.13949386  0.29214465  1
  Li  Li8  1  0.19967378  0.45606998  0.78517596  1
  Al  Al9  1  0.04645041  0.51423444  0.59241457  1
  S  S10  1  0.06505159  0.60754485  0.17052412  1
  S  S11  1  0.80839735  0.94888554  0.96563203  1
  S  S12  1  0.68423303  0.30461377  0.09767211  1
  S  S13  1  0.49517691  0.44015249  0.12203823  1
  S  S14  1  0.25877998  0.03438852  0.90932040  1
  S  S15  1  0.52006802  0.66252228  0.31171108  1
  S  S16  1  0.96958463  0.54671028  0.18485446  1
  S  S17  1  0.89482735  0.77513282  0.93949894  1
