# generated using pymatgen
data_LiCaP6(PbO4)6
_symmetry_space_group_name_H-M   'P 1'
_cell_length_a   7.11300000
_cell_length_b   9.67900000
_cell_length_c   9.67900000
_cell_angle_alpha   120.00000000
_cell_angle_beta   90.00000000
_cell_angle_gamma   90.00000000
_symmetry_Int_Tables_number   1
_chemical_formula_structural   LiCaP6(PbO4)6
_chemical_formula_sum   'Li1 Ca1 P6 Pb6 O24'
_cell_volume   577.09115782
_cell_formula_units_Z   1
loop_
 _symmetry_equiv_pos_site_id
 _symmetry_equiv_pos_as_xyz
  1  'x, y, z'
loop_
 _atom_site_type_symbol
 _atom_site_label
 _atom_site_symmetry_multiplicity
 _atom_site_fract_x
 _atom_site_fract_y
 _atom_site_fract_z
 _atom_site_occupancy
  Li  Li0  1  0.36636184  0.86050614  0.70785535  1
  Ca  Ca1  1  0.61185289  0.56805498  0.70877086  1
  P  P2  1  0.19967378  0.54393002  0.21482404  1
  P  P3  1  0.04645041  0.48576556  0.40758543  1
  P  P4  1  0.06505159  0.39245515  0.82947588  1
  P  P5  1  0.80839735  0.05111446  0.03436797  1
  P  P6  1  0.68423303  0.69538623  0.90232789  1
  P  P7  1  0.49517691  0.55984751  0.87796177  1
  Pb  Pb8  1  0.73199394  0.62545988  0.04928569  1
  Pb  Pb9  1  0.15599452  0.40134152  0.84398136  1
  Pb  Pb10  1  0.60111501  0.94191639  0.13382385  1
  Pb  Pb11  1  0.96990985  0.29192742  0.97941551  1
  Pb  Pb12  1  0.18182497  0.16755736  0.78766089  1
  Pb  Pb13  1  0.52475643  0.81659549  0.69575776  1
  O  O14  1  0.25877998  0.96561148  0.09067960  1
  O  O15  1  0.52006802  0.33747772  0.68828892  1
  O  O16  1  0.96958463  0.45328972  0.81514554  1
  O  O17  1  0.89482735  0.22486718  0.06050106  1
  O  O18  1  0.08849250  0.40210002  0.07812576  1
  O  O19  1  0.32533033  0.80401714  0.95477271  1
  O  O20  1  0.82873751  0.61132271  0.72865097  1
  O  O21  1  0.54269608  0.64324667  0.71906549  1
  O  O22  1  0.07455064  0.85907578  0.19780302  1
  O  O23  1  0.19871568  0.01311306  0.22775523  1
  O  O24  1  0.70685734  0.99447788  0.18453857  1
  O  O25  1  0.07404465  0.27099283  0.22872965  1
  O  O26  1  0.86310343  0.64153427  0.88413094  1
  O  O27  1  0.06355835  0.37670187  0.66910198  1
  O  O28  1  0.72960618  0.68901768  0.67481668  1
  O  O29  1  0.47221493  0.36244253  0.11278726  1
  O  O30  1  0.76078505  0.88040575  0.28675521  1
  O  O31  1  0.49379560  0.43872280  0.22903282  1
  O  O32  1  0.02541913  0.47726717  0.57245898  1
  O  O33  1  0.63641041  0.89210857  0.96857081  1
  O  O34  1  0.90756647  0.68564402  0.49142931  1
  O  O35  1  0.75555114  0.75070777  0.58961708  1
  O  O36  1  0.28975145  0.77120183  0.92302009  1
  O  O37  1  0.80812038  0.83877871  0.07030235  1
