# generated using pymatgen
data_BaLi2P2O7
_symmetry_space_group_name_H-M   C2/c
_cell_length_a   7.14700000
_cell_length_b   12.28300000
_cell_length_c   14.01600000
_cell_angle_alpha   90.00000000
_cell_angle_beta   90.49000000
_cell_angle_gamma   90.00000000
_symmetry_Int_Tables_number   15
_chemical_formula_structural   BaLi2P2O7
_chemical_formula_sum   'Ba8 Li16 P16 O56'
_cell_volume   1230.37200438
_cell_formula_units_Z   8
loop_
 _symmetry_equiv_pos_site_id
 _symmetry_equiv_pos_as_xyz
  1  'x, y, z'
  2  '-x, -y, -z'
  3  '-x, y, -z+1/2'
  4  'x, -y, z+1/2'
  5  'x+1/2, y+1/2, z'
  6  '-x+1/2, -y+1/2, -z'
  7  '-x+1/2, y+1/2, -z+1/2'
  8  'x+1/2, -y+1/2, z+1/2'
loop_
 _atom_site_type_symbol
 _atom_site_label
 _atom_site_symmetry_multiplicity
 _atom_site_fract_x
 _atom_site_fract_y
 _atom_site_fract_z
 _atom_site_occupancy
  Ba  Ba0  8  0.18437846  0.48623137  0.12001493  1.0
  Li  Li1  8  0.04089124  0.27447780  0.50823194  1.0
  Li  Li2  4  0.00000000  0.26008046  0.25000000  1.0
  Li  Li3  4  0.00000000  0.27194893  0.75000000  1.0
  P  P4  8  0.20086538  0.09895501  0.61959483  1.0
  P  P5  8  0.22415335  0.12222949  0.14826299  1.0
  O  O6  8  0.00483420  0.18216259  0.85375597  1.0
  O  O7  8  0.06981014  0.02386728  0.11905257  1.0
  O  O8  8  0.09663066  0.22199108  0.11043063  1.0
  O  O9  8  0.13938012  0.39452060  0.96268559  1.0
  O  O10  8  0.16618672  0.38491186  0.31898371  1.0
  O  O11  8  0.21158807  0.38460420  0.76952495  1.0
  O  O12  8  0.22580876  0.37415539  0.48136046  1.0
