# generated using pymatgen
data_Li4SnS4
_symmetry_space_group_name_H-M   Pnma
_cell_length_a   13.81200000
_cell_length_b   7.96240000
_cell_length_c   6.37000000
_cell_angle_alpha   90.00000000
_cell_angle_beta   90.00000000
_cell_angle_gamma   90.00000000
_symmetry_Int_Tables_number   62
_chemical_formula_structural   Li4SnS4
_chemical_formula_sum   'Li16 Sn4 S16'
_cell_volume   700.55138026
_cell_formula_units_Z   4
loop_
 _symmetry_equiv_pos_site_id
 _symmetry_equiv_pos_as_xyz
  1  'x, y, z'
  2  '-x, -y, -z'
  3  '-x+1/2, -y, z+1/2'
  4  'x+1/2, y, -z+1/2'
  5  'x+1/2, -y+1/2, -z+1/2'
  6  '-x+1/2, y+1/2, z+1/2'
  7  '-x, y+1/2, -z'
  8  'x, -y+1/2, z'
loop_
 _atom_site_type_symbol
 _atom_site_label
 _atom_site_symmetry_multiplicity
 _atom_site_fract_x
 _atom_site_fract_y
 _atom_site_fract_z
 _atom_site_occupancy
  Li  Li0  8  0.03500000  0.01700000  0.49100000  0.25
  Li  Li1  8  0.16040000  0.50450000  0.65400000  1.0
  Li  Li2  8  0.21300000  0.20600000  0.99900000  0.25
  Li  Li3  4  0.06960000  0.25000000  0.33800000  1.0
  Sn  Sn4  4  0.08661000  0.75000000  0.13477000  1.0
  S  S5  8  0.16746000  0.50660000  0.26650000  1.0
  S  S6  4  0.07562000  0.25000000  0.73590000  1.0
  S  S7  4  0.09140000  0.75000000  0.76260000  1.0
