# generated using pymatgen
data_Li20.064Sn0.64372Ge1.35628P4S24
_symmetry_space_group_name_H-M   P4_2/nmc
_cell_length_a   8.70680000
_cell_length_b   8.70680000
_cell_length_c   12.63940000
_cell_angle_alpha   90.00000000
_cell_angle_beta   90.00000000
_cell_angle_gamma   90.00000000
_symmetry_Int_Tables_number   137
_chemical_formula_structural   Li20.064Sn0.64372Ge1.35628P4S24
_chemical_formula_sum   'Li20.064 Sn0.64372 Ge1.35628 P4 S24'
_cell_volume   958.17226425
_cell_formula_units_Z   1
loop_
 _symmetry_equiv_pos_site_id
 _symmetry_equiv_pos_as_xyz
  1  'x, y, z'
  2  '-y+1/2, x+1/2, z+1/2'
  3  '-x, -y, z'
  4  'y+1/2, -x+1/2, z+1/2'
  5  'x+1/2, -y+1/2, -z+1/2'
  6  '-y, -x, -z'
  7  '-x+1/2, y+1/2, -z+1/2'
  8  'y, x, -z'
  9  '-x+1/2, -y+1/2, -z+1/2'
  10  'y, -x, -z'
  11  'x+1/2, y+1/2, -z+1/2'
  12  '-y, x, -z'
  13  '-x, y, z'
  14  'y+1/2, x+1/2, z+1/2'
  15  'x, -y, z'
  16  '-y+1/2, -x+1/2, z+1/2'
loop_
 _atom_site_type_symbol
 _atom_site_label
 _atom_site_symmetry_multiplicity
 _atom_site_fract_x
 _atom_site_fract_y
 _atom_site_fract_z
 _atom_site_occupancy
  Li  Li0  16  0.21654346  0.26153092  0.05333716  0.419
  Li  Li1  16  0.22034209  0.23320966  0.81024635  0.42
  Li  Li2  4  0.00000000  0.00000000  0.23577097  0.66
  Li  Li3  4  0.00000000  0.50000000  0.04454393  1.0
  Ge  Ge4  4  0.00000000  0.50000000  0.29962491  0.33907
  Sn  Sn5  4  0.00000000  0.50000000  0.29962491  0.16093
  P  P6  4  0.00000000  0.50000000  0.29962491  0.5
  P  P7  2  0.00000000  0.00000000  0.00000000  1.0
  S  S8  8  0.00000000  0.17207558  0.09253427  1.0
  S  S9  8  0.00000000  0.29782316  0.41813628  1.0
  S  S10  8  0.00000000  0.30821228  0.71386510  1.0
