# generated using pymatgen
data_LiAlGeO4
_symmetry_space_group_name_H-M   R3
_cell_length_a   13.77200000
_cell_length_b   13.77200000
_cell_length_c   9.19500000
_cell_angle_alpha   90.00000000
_cell_angle_beta   90.00000000
_cell_angle_gamma   120.00000000
_symmetry_Int_Tables_number   146
_chemical_formula_structural   LiAlGeO4
_chemical_formula_sum   'Li18 Al18 Ge18 O72'
_cell_volume   1510.34580388
_cell_formula_units_Z   18
loop_
 _symmetry_equiv_pos_site_id
 _symmetry_equiv_pos_as_xyz
  1  'x, y, z'
  2  '-y, x-y, z'
  3  '-x+y, -x, z'
  4  'x+2/3, y+1/3, z+1/3'
  5  '-y+2/3, x-y+1/3, z+1/3'
  6  '-x+y+2/3, -x+1/3, z+1/3'
  7  'x+1/3, y+2/3, z+2/3'
  8  '-y+1/3, x-y+2/3, z+2/3'
  9  '-x+y+1/3, -x+2/3, z+2/3'
loop_
 _atom_site_type_symbol
 _atom_site_label
 _atom_site_symmetry_multiplicity
 _atom_site_fract_x
 _atom_site_fract_y
 _atom_site_fract_z
 _atom_site_occupancy
  Li  Li0  9  0.02721163  0.21949417  0.42962615  1.0
  Li  Li1  9  0.13843842  0.67680759  0.58983461  1.0
  Al  Al2  9  0.01311664  0.20247990  0.76431500  1.0
  Al  Al3  9  0.12898445  0.69029906  0.92054411  1.0
  Ge  Ge4  9  0.01176533  0.21492742  0.08720555  1.0
  Ge  Ge5  9  0.14952481  0.68332308  0.24115615  1.0
  O  O6  9  0.00089963  0.33682678  0.76832932  1.0
  O  O7  9  0.00445425  0.71186812  0.60841962  1.0
  O  O8  9  0.08308506  0.22440812  0.91226389  1.0
  O  O9  9  0.08457335  0.21517566  0.25902720  1.0
  O  O10  9  0.10287292  0.21618395  0.60017907  1.0
  O  O11  9  0.17837554  0.12235548  0.44735222  1.0
  O  O12  9  0.18933955  0.09690414  0.12484728  1.0
  O  O13  9  0.19938324  0.11854314  0.74569690  1.0
