# generated using pymatgen
data_Li3AlF6
_symmetry_space_group_name_H-M   C2/c
_cell_length_a   14.20100000
_cell_length_b   8.38700000
_cell_length_c   9.86100000
_cell_angle_alpha   90.00000000
_cell_angle_beta   94.07000000
_cell_angle_gamma   90.00000000
_symmetry_Int_Tables_number   15
_chemical_formula_structural   Li3AlF6
_chemical_formula_sum   'Li36 Al12 F72'
_cell_volume   1171.52049540
_cell_formula_units_Z   12
loop_
 _symmetry_equiv_pos_site_id
 _symmetry_equiv_pos_as_xyz
  1  'x, y, z'
  2  '-x, -y, -z'
  3  '-x, y, -z+1/2'
  4  'x, -y, z+1/2'
  5  'x+1/2, y+1/2, z'
  6  '-x+1/2, -y+1/2, -z'
  7  '-x+1/2, y+1/2, -z+1/2'
  8  'x+1/2, -y+1/2, z+1/2'
loop_
 _atom_site_type_symbol
 _atom_site_label
 _atom_site_symmetry_multiplicity
 _atom_site_fract_x
 _atom_site_fract_y
 _atom_site_fract_z
 _atom_site_occupancy
  Li  Li0  8  0.02595815  0.33845551  0.53675306  1.0
  Li  Li1  8  0.14070332  0.13829129  0.74577812  1.0
  Li  Li2  8  0.18119370  0.28866698  0.03711745  1.0
  Li  Li3  8  0.20425838  0.14680086  0.45428499  1.0
  Li  Li4  4  0.00000000  0.22333680  0.25000000  1.0
  Al  Al5  8  0.15427725  0.49957919  0.29736753  1.0
  Al  Al6  4  0.00000000  0.00000000  0.00000000  1.0
  F  F7  8  0.04678741  0.16537525  0.43134967  1.0
  F  F8  8  0.05086822  0.03279995  0.17340455  1.0
  F  F9  8  0.06565095  0.48495151  0.92410657  1.0
  F  F10  8  0.09235764  0.16370845  0.94457898  1.0
  F  F11  8  0.09646457  0.33843021  0.71644878  1.0
  F  F12  8  0.09767148  0.34113460  0.20227742  1.0
  F  F13  8  0.21653210  0.33172231  0.87712871  1.0
  F  F14  8  0.22766334  0.37318773  0.39727167  1.0
  F  F15  8  0.24736332  0.47338884  0.18662412  1.0
