# generated using pymatgen
data_Li5V4(PO4)6
_symmetry_space_group_name_H-M   P2_1/c
_cell_length_a   8.55390000
_cell_length_b   8.60990000
_cell_length_c   14.72217225
_cell_angle_alpha   90.00000000
_cell_angle_beta   125.52042827
_cell_angle_gamma   90.00000000
_symmetry_Int_Tables_number   14
_chemical_formula_structural   Li5V4(PO4)6
_chemical_formula_sum   'Li10 V8 P12 O48'
_cell_volume   882.48983875
_cell_formula_units_Z   2
loop_
 _symmetry_equiv_pos_site_id
 _symmetry_equiv_pos_as_xyz
  1  'x, y, z'
  2  '-x, -y, -z'
  3  '-x, y+1/2, -z+1/2'
  4  'x, -y+1/2, z+1/2'
loop_
 _atom_site_type_symbol
 _atom_site_label
 _atom_site_symmetry_multiplicity
 _atom_site_fract_x
 _atom_site_fract_y
 _atom_site_fract_z
 _atom_site_occupancy
  Li  Li0  4  0.01522291  0.22784110  0.80266185  1.0
  Li  Li1  4  0.30038329  0.20352825  0.69175521  0.96
  Li  Li2  4  0.35494268  0.60555922  0.82576320  0.54
  V  V3  4  0.13664950  0.53188194  0.87796231  1.0
  V  V4  4  0.35534756  0.53725455  0.61185693  1.0
  P  P5  4  0.05363978  0.11098591  0.15944039  1.0
  P  P6  4  0.25370905  0.61424371  0.13156878  1.0
  P  P7  4  0.45587466  0.23789532  0.97936207  1.0
  O  O8  4  0.01378593  0.22038536  0.66952938  1.0
  O  O9  4  0.06564863  0.50631641  0.72180743  1.0
  O  O10  4  0.09517613  0.59256713  0.17574398  1.0
  O  O11  4  0.14048773  0.55315994  0.48668314  1.0
  O  O12  4  0.18080206  0.57448718  0.03574920  1.0
  O  O13  4  0.22267018  0.12291492  0.15928335  1.0
  O  O14  4  0.26506917  0.16577417  0.42596150  1.0
  O  O15  4  0.31716421  0.72660073  0.70458406  1.0
  O  O16  4  0.38188254  0.64627448  0.93675150  1.0
  O  O17  4  0.39550419  0.01075231  0.71268081  1.0
  O  O18  4  0.45141919  0.15115349  0.07810299  1.0
  O  O19  4  0.47052940  0.15090677  0.91440118  1.0
