# generated using pymatgen
data_LiB6O9F
_symmetry_space_group_name_H-M   Pna2_1
_cell_length_a   7.65545000
_cell_length_b   8.53175000
_cell_length_c   10.78940000
_cell_angle_alpha   90.00000000
_cell_angle_beta   90.00000000
_cell_angle_gamma   90.00000000
_symmetry_Int_Tables_number   33
_chemical_formula_structural   LiB6O9F
_chemical_formula_sum   'Li4 B24 O36 F4'
_cell_volume   704.70303132
_cell_formula_units_Z   4
loop_
 _symmetry_equiv_pos_site_id
 _symmetry_equiv_pos_as_xyz
  1  'x, y, z'
  2  '-x, -y, z+1/2'
  3  '-x+1/2, y+1/2, z+1/2'
  4  'x+1/2, -y+1/2, z'
loop_
 _atom_site_type_symbol
 _atom_site_label
 _atom_site_symmetry_multiplicity
 _atom_site_fract_x
 _atom_site_fract_y
 _atom_site_fract_z
 _atom_site_occupancy
  Li  Li0  4  0.23766554  0.27990417  0.23302552  1.0
  B  B1  4  0.04099658  0.09036269  0.40820667  1.0
  B  B2  4  0.05152774  0.85113465  0.48741959  1.0
  B  B3  4  0.06607076  0.34940317  0.48750342  1.0
  B  B4  4  0.09277060  0.58910465  0.60220331  1.0
  B  B5  4  0.12526641  0.60752076  0.17033270  1.0
  B  B6  4  0.13599572  0.09629603  0.84256573  1.0
  O  O7  4  0.05173132  0.70367081  0.05338481  1.0
  O  O8  4  0.06253909  0.45665516  0.15152593  1.0
  O  O9  4  0.07049654  0.22144945  0.89310488  1.0
  O  O10  4  0.08924251  0.25842347  0.39205912  1.0
  O  O11  4  0.09295924  0.75914567  0.57472024  1.0
  O  O12  4  0.09765068  0.94463187  0.83103028  1.0
  O  O13  4  0.10449919  0.00092803  0.46848707  1.0
  O  O14  4  0.13151348  0.48538422  0.49791050  1.0
  O  O15  4  0.24673332  0.17484819  0.71776509  1.0
  F  F16  4  0.22007441  0.57567084  0.68228579  1.0
