# generated using pymatgen
data_Li7P3S11
_symmetry_space_group_name_H-M   P-1
_cell_length_a   6.03160000
_cell_length_b   12.33974205
_cell_length_c   12.53030000
_cell_angle_alpha   106.88548416
_cell_angle_beta   102.84500000
_cell_angle_gamma   102.56246805
_symmetry_Int_Tables_number   2
_chemical_formula_structural   Li7P3S11
_chemical_formula_sum   'Li14 P6 S22'
_cell_volume   829.34760867
_cell_formula_units_Z   2
loop_
 _symmetry_equiv_pos_site_id
 _symmetry_equiv_pos_as_xyz
  1  'x, y, z'
  2  '-x, -y, -z'
loop_
 _atom_site_type_symbol
 _atom_site_label
 _atom_site_symmetry_multiplicity
 _atom_site_fract_x
 _atom_site_fract_y
 _atom_site_fract_z
 _atom_site_occupancy
  Li  Li0  2  0.03858780  0.65320058  0.85015368  1.0
  Li  Li1  2  0.04757082  0.64963122  0.66302503  1.0
  Li  Li2  2  0.19687553  0.33263590  0.90447467  1.0
  Li  Li3  2  0.26194139  0.78342330  0.24268984  1.0
  Li  Li4  2  0.27931372  0.06833189  0.72411596  1.0
  Li  Li5  2  0.36025158  0.65859644  0.49005005  1.0
  Li  Li6  2  0.42238601  0.11488924  0.14113944  1.0
  P  P7  2  0.11520279  0.82605938  0.06205490  1.0
  P  P8  2  0.17796951  0.17232724  0.53062240  1.0
  P  P9  2  0.45630249  0.50451693  0.72038997  1.0
  S  S10  2  0.06815703  0.17998189  0.66374750  1.0
  S  S11  2  0.08792860  0.88175238  0.61884482  1.0
  S  S12  2  0.15293522  0.82998235  0.90679033  1.0
  S  S13  2  0.16846251  0.67249404  0.07791762  1.0
  S  S14  2  0.20654476  0.50647767  0.30280984  1.0
  S  S15  2  0.21595401  0.36657190  0.54203123  1.0
  S  S16  2  0.24606822  0.16849423  0.96209799  1.0
  S  S17  2  0.33991763  0.96470272  0.19266405  1.0
  S  S18  2  0.42041781  0.47227157  0.85332079  1.0
  S  S19  2  0.43351462  0.65299718  0.70873341  1.0
  S  S20  2  0.49764679  0.18060819  0.55085815  1.0
