# generated using pymatgen
data_Li7Ti10Al(PO4)18
_symmetry_space_group_name_H-M   'P 1'
_cell_length_a   8.49410000
_cell_length_b   8.49410000
_cell_length_c   20.85860000
_cell_angle_alpha   90.00000000
_cell_angle_beta   90.00000000
_cell_angle_gamma   120.00000000
_symmetry_Int_Tables_number   1
_chemical_formula_structural   Li7Ti10Al(PO4)18
_chemical_formula_sum   'Li7 Ti10 Al1 P18 O72'
_cell_volume   1303.31840030
_cell_formula_units_Z   1
loop_
 _symmetry_equiv_pos_site_id
 _symmetry_equiv_pos_as_xyz
  1  'x, y, z'
loop_
 _atom_site_type_symbol
 _atom_site_label
 _atom_site_symmetry_multiplicity
 _atom_site_fract_x
 _atom_site_fract_y
 _atom_site_fract_z
 _atom_site_occupancy
  Li  Li0  1  0.62545988  0.04928569  0.73199394  1
  Li  Li1  1  0.40134152  0.84398136  0.15599452  1
  Li  Li2  1  0.94191639  0.13382385  0.60111501  1
  Li  Li3  1  0.29192742  0.97941551  0.96990985  1
  Li  Li4  1  0.16755736  0.78766089  0.18182497  1
  Li  Li5  1  0.81659549  0.69575776  0.52475643  1
  Li  Li6  1  0.56805498  0.70877086  0.61185289  1
  Ti  Ti7  1  0.54393002  0.21482404  0.19967378  1
  Ti  Ti8  1  0.48576556  0.40758543  0.04645041  1
  Ti  Ti9  1  0.39245515  0.82947588  0.06505159  1
  Ti  Ti10  1  0.05111446  0.03436797  0.80839735  1
  Ti  Ti11  1  0.69538623  0.90232789  0.68423303  1
  Ti  Ti12  1  0.55984751  0.87796177  0.49517691  1
  Ti  Ti13  1  0.96561148  0.09067960  0.25877998  1
  Ti  Ti14  1  0.33747772  0.68828892  0.52006802  1
  Ti  Ti15  1  0.45328972  0.81514554  0.96958463  1
  Ti  Ti16  1  0.22486718  0.06050106  0.89482735  1
  Al  Al17  1  0.86050614  0.70785535  0.36636184  1
  P  P18  1  0.40210002  0.07812576  0.08849250  1
  P  P19  1  0.80401714  0.95477271  0.32533033  1
  P  P20  1  0.61132271  0.72865097  0.82873751  1
  P  P21  1  0.64324667  0.71906549  0.54269608  1
  P  P22  1  0.85907578  0.19780302  0.07455064  1
  P  P23  1  0.01311306  0.22775523  0.19871568  1
  P  P24  1  0.99447788  0.18453857  0.70685734  1
  P  P25  1  0.27099283  0.22872965  0.07404465  1
  P  P26  1  0.64153427  0.88413094  0.86310343  1
  P  P27  1  0.37670187  0.66910198  0.06355835  1
  P  P28  1  0.68901768  0.67481668  0.72960618  1
  P  P29  1  0.36244253  0.11278726  0.47221493  1
  P  P30  1  0.88040575  0.28675521  0.76078505  1
  P  P31  1  0.43872280  0.22903282  0.49379560  1
  P  P32  1  0.47726717  0.57245898  0.02541913  1
  P  P33  1  0.89210857  0.96857081  0.63641041  1
  P  P34  1  0.68564402  0.49142931  0.90756647  1
  P  P35  1  0.75070777  0.58961708  0.75555114  1
  O  O36  1  0.77120183  0.92302009  0.28975145  1
  O  O37  1  0.83877871  0.07030235  0.80812038  1
  O  O38  1  0.36659624  0.12853941  0.80367208  1
  O  O39  1  0.81342994  0.10744100  0.53934224  1
  O  O40  1  0.19255984  0.10390870  0.31800347  1
  O  O41  1  0.88994808  0.77206484  0.42710779  1
  O  O42  1  0.18198523  0.13926942  0.00695213  1
  O  O43  1  0.48925270  0.58258900  0.22210781  1
  O  O44  1  0.88013463  0.66238483  0.94290970  1
  O  O45  1  0.67679707  0.48120938  0.70301896  1
  O  O46  1  0.63637040  0.02821792  0.96244729  1
  O  O47  1  0.74821770  0.50275149  0.30087831  1
  O  O48  1  0.71515951  0.96311305  0.60956433  1
  O  O49  1  0.49732098  0.94852125  0.27864646  1
  O  O50  1  0.09173411  0.76043811  0.14489487  1
  O  O51  1  0.51054724  0.01434955  0.24205527  1
  O  O52  1  0.32786445  0.23838038  0.23763754  1
  O  O53  1  0.27178365  0.63221687  0.63230583  1
  O  O54  1  0.36647029  0.46422532  0.09028977  1
  O  O55  1  0.16469750  0.67921994  0.18651851  1
  O  O56  1  0.95922486  0.40910706  0.67756436  1
  O  O57  1  0.98341217  0.48790694  0.22649578  1
  O  O58  1  0.35482721  0.82563357  0.69093774  1
  O  O59  1  0.61326465  0.06327001  0.13752094  1
  O  O60  1  0.65893365  0.88652648  0.92469362  1
  O  O61  1  0.12266065  0.74205837  0.65998405  1
  O  O62  1  0.18277780  0.44479919  0.52965058  1
  O  O63  1  0.75814771  0.90689723  0.89721576  1
  O  O64  1  0.09958194  0.36689854  0.33902979  1
  O  O65  1  0.65079043  0.27404432  0.89711026  1
  O  O66  1  0.11291358  0.22012445  0.64203165  1
  O  O67  1  0.91586004  0.83837129  0.89855419  1
  O  O68  1  0.39357094  0.99080295  0.10147154  1
  O  O69  1  0.33649823  0.99493842  0.16080805  1
  O  O70  1  0.45126621  0.30810480  0.65196126  1
  O  O71  1  0.77573069  0.28782078  0.23724909  1
  O  O72  1  0.67460030  0.25350859  0.64963290  1
  O  O73  1  0.15077659  0.34238711  0.56830860  1
  O  O74  1  0.90632523  0.63228420  0.26520237  1
  O  O75  1  0.75601036  0.02698945  0.39309772  1
  O  O76  1  0.10795344  0.36886137  0.79481130  1
  O  O77  1  0.49736291  0.42309612  0.49251769  1
  O  O78  1  0.80475701  0.27754788  0.28077236  1
  O  O79  1  0.97568403  0.35452770  0.17711068  1
  O  O80  1  0.05954142  0.04607142  0.91486439  1
  O  O81  1  0.62984130  0.98454338  0.92831856  1
  O  O82  1  0.57181585  0.03334518  0.96361998  1
  O  O83  1  0.14699054  0.70555111  0.38509773  1
  O  O84  1  0.14886333  0.68307799  0.16949275  1
  O  O85  1  0.44319874  0.06384523  0.69602980  1
  O  O86  1  0.42993883  0.90282351  0.61500723  1
  O  O87  1  0.00994615  0.85991598  0.51832965  1
  O  O88  1  0.12262693  0.25923138  0.69701574  1
  O  O89  1  0.29751592  0.64050885  0.29359184  1
  O  O90  1  0.19063884  0.18988661  0.86707232  1
  O  O91  1  0.08675945  0.48865760  0.50151629  1
  O  O92  1  0.20170482  0.35003607  0.70196688  1
  O  O93  1  0.20420733  0.10999466  0.33799516  1
  O  O94  1  0.62441705  0.90601806  0.57828014  1
  O  O95  1  0.96405773  0.53440198  0.54264463  1
  O  O96  1  0.71345875  0.40916674  0.03050025  1
  O  O97  1  0.96265181  0.17739944  0.36019064  1
  O  O98  1  0.87293949  0.47775674  0.76999355  1
  O  O99  1  0.78417897  0.37710952  0.08534746  1
  O  O100  1  0.94831828  0.46864537  0.54063512  1
  O  O101  1  0.36257010  0.27390867  0.97585208  1
  O  O102  1  0.48369965  0.67704353  0.79518619  1
  O  O103  1  0.72916775  0.56102858  0.07845638  1
  O  O104  1  0.97464926  0.03735159  0.83598012  1
  O  O105  1  0.30402579  0.59104706  0.17329432  1
  O  O106  1  0.84356296  0.74975710  0.54922666  1
  O  O107  1  0.28540408  0.33980262  0.27993390  1
