# generated using pymatgen
data_LiBO2
_symmetry_space_group_name_H-M   P2_1/c
_cell_length_a   5.84500000
_cell_length_b   4.35300000
_cell_length_c   6.45400000
_cell_angle_alpha   90.00000000
_cell_angle_beta   115.09000000
_cell_angle_gamma   90.00000000
_symmetry_Int_Tables_number   14
_chemical_formula_structural   LiBO2
_chemical_formula_sum   'Li4 B4 O8'
_cell_volume   148.71647847
_cell_formula_units_Z   4
loop_
 _symmetry_equiv_pos_site_id
 _symmetry_equiv_pos_as_xyz
  1  'x, y, z'
  2  '-x, -y, -z'
  3  '-x, y+1/2, -z+1/2'
  4  'x, -y+1/2, z+1/2'
loop_
 _atom_site_type_symbol
 _atom_site_label
 _atom_site_symmetry_multiplicity
 _atom_site_fract_x
 _atom_site_fract_y
 _atom_site_fract_z
 _atom_site_occupancy
  Li  Li0  4  0.43435939  0.22531783  0.31827982  1.0
  B  B1  4  0.13531255  0.67833780  0.24809368  1.0
  O  O2  4  0.07083230  0.14904622  0.74603501  1.0
  O  O3  4  0.35806794  0.71828125  0.82304602  1.0
