# generated using pymatgen
data_Li6Mo16H94W2S16O79.96
_symmetry_space_group_name_H-M   C2/m
_cell_length_a   20.67540000
_cell_length_b   11.15090000
_cell_length_c   14.57690000
_cell_angle_alpha   90.00000000
_cell_angle_beta   133.86500000
_cell_angle_gamma   90.00000000
_symmetry_Int_Tables_number   12
_chemical_formula_structural   Li6Mo16H94W2S16O79.96
_chemical_formula_sum   'Li6 Mo16 H94 W2 S16 O79.96'
_cell_volume   2422.97510546
_cell_formula_units_Z   1
loop_
 _symmetry_equiv_pos_site_id
 _symmetry_equiv_pos_as_xyz
  1  'x, y, z'
  2  '-x, -y, -z'
  3  '-x, y, -z'
  4  'x, -y, z'
  5  'x+1/2, y+1/2, z'
  6  '-x+1/2, -y+1/2, -z'
  7  '-x+1/2, y+1/2, -z'
  8  'x+1/2, -y+1/2, z'
loop_
 _atom_site_type_symbol
 _atom_site_label
 _atom_site_symmetry_multiplicity
 _atom_site_fract_x
 _atom_site_fract_y
 _atom_site_fract_z
 _atom_site_occupancy
  Li  Li0  4  0.00000000  0.24300020  0.50000000  1.0
  Li  Li1  2  0.00000000  0.50000000  0.50000000  1.0
  Mo  Mo2  4  0.04556163  0.50000000  0.30428262  1.0
  Mo  Mo3  4  0.17289044  0.50000000  0.95925974  1.0
  Mo  Mo4  4  0.22377358  0.50000000  0.37211783  1.0
  Mo  Mo5  4  0.24251582  0.00000000  0.76589445  1.0
  H  H6  8  0.00021942  0.12032196  0.16651886  0.35
  H  H7  8  0.01848195  0.14463486  0.35455515  0.5
  H  H8  8  0.01986055  0.04326794  0.41753939  0.5
  H  H9  8  0.03741582  0.29361690  0.09748586  0.25
  H  H10  8  0.04369701  0.14474849  0.75803244  0.5
  H  H11  8  0.05814706  0.17545167  0.10411146  0.21
  H  H12  8  0.05981247  0.18525565  0.03602803  0.21
  H  H13  8  0.06503574  0.31184045  0.82797123  1.0
  H  H14  8  0.07157493  0.30449526  0.00449824  0.25
  H  H15  8  0.07769964  0.01549630  0.09792688  0.22
  H  H16  8  0.09954179  0.37882410  0.71159976  1.0
  H  H17  8  0.10410864  0.11813124  0.99344993  0.21
  H  H18  8  0.10753266  0.14592341  0.48988444  1.0
  H  H19  8  0.11362076  0.41135976  0.15722445  0.25
  H  H20  8  0.12396292  0.12691655  0.84718700  0.7
  H  H21  8  0.12455681  0.11366916  0.89538113  0.45
  H  H22  8  0.14875687  0.36760397  0.65802455  1.0
  H  H23  8  0.19465463  0.11535939  0.26171178  0.25
  H  H24  8  0.20255575  0.11706121  0.24385902  0.7
  H  H25  8  0.21650780  0.37543998  0.58095384  0.65
  H  H26  8  0.24330049  0.10713218  0.35646696  0.4
  H  H27  8  0.24733073  0.31356250  0.32978221  1.0
  H  H28  4  0.10084832  0.00000000  0.06161057  0.15
  H  H29  4  0.19681932  0.00000000  0.08807704  0.15
  W  W30  4  0.00000000  0.45471177  0.00000000  0.5
  S  S31  8  0.11545752  0.34260417  0.31610906  1.0
  S  S32  8  0.22041465  0.33232698  0.09498840  1.0
  O  O33  8  0.05607878  0.12951327  0.41559067  1.0
  O  O34  8  0.08157946  0.39221515  0.82951895  1.0
  O  O35  8  0.08543056  0.14228041  0.82755493  1.0
  O  O36  8  0.08629907  0.10624990  0.14388504  0.21
  O  O37  8  0.09552561  0.36943750  0.62391198  1.0
  O  O38  8  0.10239133  0.11222982  0.05220178  0.21
  O  O39  8  0.21936407  0.10920298  0.64070812  1.0
  O  O40  8  0.24386433  0.34372944  0.67429217  1.0
  O  O41  4  0.00000000  0.32147352  0.00000000  1.0
  O  O42  4  0.03097486  0.50000000  0.91020917  1.0
  O  O43  4  0.05171125  0.50000000  0.43874770  1.0
  O  O44  4  0.12835617  0.00000000  0.70205805  1.0
  O  O45  4  0.13517013  0.50000000  0.15888484  1.0
  O  O46  4  0.22874131  0.00000000  0.46806347  1.0
  O  O47  4  0.24297199  0.00000000  0.02468343  1.0
  O  O48  4  0.16005951  0.00000000  0.10710165  0.15
