# generated using pymatgen
data_Li3Mo8H47W(SO5)8
_symmetry_space_group_name_H-M   'P 1'
_cell_length_a   11.15090000
_cell_length_b   14.57690000
_cell_length_c   14.90852754
_cell_angle_alpha   89.04053850
_cell_angle_beta   90.00000000
_cell_angle_gamma   90.00000000
_symmetry_Int_Tables_number   1
_chemical_formula_structural   Li3Mo8H47W(SO5)8
_chemical_formula_sum   'Li6 Mo16 H94 W2 S16 O80'
_cell_volume   2422.97510546
_cell_formula_units_Z   2
loop_
 _symmetry_equiv_pos_site_id
 _symmetry_equiv_pos_as_xyz
  1  'x, y, z'
loop_
 _atom_site_type_symbol
 _atom_site_label
 _atom_site_symmetry_multiplicity
 _atom_site_fract_x
 _atom_site_fract_y
 _atom_site_fract_z
 _atom_site_occupancy
  Li  Li0  1  0.95071431  0.35745382  0.37454012  1
  Li  Li1  1  0.15601864  0.55733604  0.59865848  1
  Li  Li2  1  0.86617615  0.54303140  0.05808361  1
  Li  Li3  1  0.02058449  0.26183727  0.70807258  1
  Li  Li4  1  0.21233911  0.34938233  0.83244264  1
  Li  Li5  1  0.30424224  0.34135192  0.18340451  1
  Mo  Mo6  1  0.29122914  0.17990788  0.43194502  1
  Mo  Mo7  1  0.29214465  0.22686798  0.13949386  1
  Mo  Mo8  1  0.78517596  0.74360380  0.45606998  1
  Mo  Mo9  1  0.59241457  0.53221597  0.51423444  1
  Mo  Mo10  1  0.17052412  0.45750674  0.60754485  1
  Mo  Mo11  1  0.96563203  0.85951181  0.94888554  1
  Mo  Mo12  1  0.09767211  0.37961926  0.30461377  1
  Mo  Mo13  1  0.12203823  0.05502442  0.44015249  1
  Mo  Mo14  1  0.90932040  0.22439146  0.03438852  1
  Mo  Mo15  1  0.31171108  0.85754574  0.66252228  1
  Mo  Mo16  1  0.18485446  0.42287435  0.54671028  1
  Mo  Mo17  1  0.93949894  0.11969453  0.77513282  1
  Mo  Mo18  1  0.92187424  0.49059252  0.59789998  1
  Mo  Mo19  1  0.04522729  0.12934747  0.19598286  1
  Mo  Mo20  1  0.27134903  0.44006022  0.38867729  1
  Mo  Mo21  1  0.28093451  0.18594276  0.35675333  1
  H  H22  1  0.64241928  0.95594256  0.07056875  1
  H  H23  1  0.94023024  0.98969860  0.58577558  1
  H  H24  1  0.64328822  0.07008296  0.38816993  1
  H  H25  1  0.94146481  0.84048585  0.54561679  1
  H  H26  1  0.90535064  0.23460057  0.96119056  1
  H  H27  1  0.10077800  0.94886052  0.06936130  1
  H  H28  1  0.68300677  0.97674569  0.09444296  1
  H  H29  1  0.84487531  0.70429631  0.31897563  1
  H  H30  1  0.28185477  0.30369635  0.81446848  1
  H  H31  1  0.62894285  0.18073485  0.69673717  1
  H  H32  1  0.80348093  0.54696353  0.73507104  1
  H  H33  1  0.75061475  0.62939520  0.17743954  1
  H  H34  1  0.41261768  0.38151294  0.99050514  1
  H  H35  1  0.34080354  0.15434436  0.77641296  1
  H  H36  1  0.42899403  0.89245832  0.85841275  1
  H  H37  1  0.10312387  0.14801003  0.75454287  1
  H  H38  1  0.82645747  0.81479723  0.50525237  1
  H  H39  1  0.38920168  0.11531442  0.89552323  1
  H  H40  1  0.09128668  0.41393166  0.90538198  1
  H  H41  1  0.95060715  0.62337592  0.95006197  1
  H  H42  1  0.44844552  0.66137356  0.63183721  1
  H  H43  1  0.67251846  0.42370998  0.32866455  1
  H  H44  1  0.78961814  0.29962706  0.79157904  1
  H  H45  1  0.05755876  0.05510858  0.49442030  1
  H  H46  1  0.88770418  0.90938451  0.44153050  1
  H  H47  1  0.14299168  0.64444362  0.11706702  1
  H  H48  1  0.10112268  0.46588874  0.61821806  1
  H  H49  1  0.07276301  0.12089093  0.70096913  1
  H  H50  1  0.08134878  0.37859549  0.70624223  1
  H  H51  1  0.37427080  0.38400257  0.98663958  1
  H  H52  1  0.94724858  0.17320150  0.81279957  1
  H  H53  1  0.37625959  0.33012253  0.75337819  1
  H  H54  1  0.55840425  0.64707509  0.77714692  1
  H  H55  1  0.11119748  0.58627072  0.90635439  1
  H  H56  1  0.46866064  0.04494963  0.01135364  1
  H  H57  1  0.11752625  0.53039239  0.11881792  1
  H  H58  1  0.58336877  0.21612767  0.74604488  1
  H  H59  1  0.28571209  0.49372855  0.37487058  1
  H  H60  1  0.96322254  0.78855864  0.22359584  1
  H  H61  1  0.04315991  0.92126429  0.96987883  1
  H  H62  1  0.99296480  0.54609546  0.52770111  1
  H  H63  1  0.96930254  0.96924356  0.55385428  1
  H  H64  1  0.69574869  0.82514243  0.62939864  1
  H  H65  1  0.58431431  0.27359993  0.62755808  1
  H  H66  1  0.28096319  0.90496510  0.04544638  1
  H  H67  1  0.45565675  0.72986881  0.89026378  1
  H  H68  1  0.18812116  0.18631722  0.27738118  1
  H  H69  1  0.58365611  0.72438241  0.35335223  1
  H  H70  1  0.98621074  0.72376691  0.97439481  1
  H  H71  1  0.30952762  0.27769865  0.53609637  1
  H  H72  1  0.16261694  0.22619601  0.68473117  1
  H  H73  1  0.94979991  0.90318227  0.82253724  1
  H  H74  1  0.41824304  0.31931329  0.61341520  1
  H  H75  1  0.04521867  0.16030308  0.86606389  1
  H  H76  1  0.81055333  0.61081276  0.37646337  1
  H  H77  1  0.59413072  0.23047397  0.15041689  1
  H  H78  1  0.84211892  0.86841431  0.96991440  1
  H  H79  1  0.41481950  0.80471391  0.46869316  1
  H  H80  1  0.86472238  0.75652551  0.05637550  1
  H  H81  1  0.99663684  0.55571403  0.99971767  1
  H  H82  1  0.94476573  0.08065998  0.76898742  1
  H  H83  1  0.45054414  0.88181131  0.24734810  1
  H  H84  1  0.60617463  0.27459178  0.95405103  1
  H  H85  1  0.61812824  0.68646203  0.67170068  1
  H  H86  1  0.67157320  0.40675011  0.11355759  1
  H  H87  1  0.52016350  0.07986311  0.77231839  1
  H  H88  1  0.56093797  0.32474676  0.55190684  1
  H  H89  1  0.13401523  0.62529981  0.40348287  1
  H  H90  1  0.62030955  0.94894251  0.75513726  1
  H  H91  1  0.13637148  0.80158050  0.21296416  1
  H  H92  1  0.58991769  0.04165649  0.35058756  1
  H  H93  1  0.90415869  0.91078054  0.43747492  1
  H  H94  1  0.78365301  0.88255329  0.51398949  1
  H  H95  1  0.86236371  0.32743392  0.62208670  1
  H  H96  1  0.92658763  0.34504281  0.14707348  1
  H  H97  1  0.45913576  0.72178819  0.25824439  1
  H  H98  1  0.32875161  0.14078276  0.49261809  1
  H  H99  1  0.07586333  0.88873410  0.24014562  1
  H  H100  1  0.15190269  0.01078133  0.12804584  1
  H  H101  1  0.18188008  0.70479254  0.64087474  1
  H  H102  1  0.47396164  0.77076933  0.89678841  1
  H  H103  1  0.19228902  0.86854875  0.17231987  1
  H  H104  1  0.27859034  0.00807542  0.16893506  1
  H  H105  1  0.12063587  0.37207623  0.08870253  1
  H  H106  1  0.36426986  0.29708355  0.20633372  1
  H  H107  1  0.03931214  0.10901557  0.69039483  1
  H  H108  1  0.08175903  0.24567823  0.62790039  1
  H  H109  1  0.06107796  0.35600525  0.92087240  1
  H  H110  1  0.74825969  0.37831974  0.80620128  1
  H  H111  1  0.37047210  0.27517366  0.20934932  1
  H  H112  1  0.36891364  0.84427994  0.61825477  1
  H  H113  1  0.03668320  0.50496601  0.74747094  1
  H  H114  1  0.89520684  0.79832786  0.71334959  1
  H  H115  1  0.10717201  0.91529888  0.53211349  1
  W  W116  1  0.24247050  0.73662596  0.53261727  1
  W  W117  1  0.02007120  0.94479500  0.37728416  1
  S  S118  1  0.80219698  0.93362642  0.14092422  1
  S  S119  1  0.77224477  0.21182874  0.98688694  1
  S  S120  1  0.81546143  0.70133523  0.00552212  1
  S  S121  1  0.77127035  0.34503748  0.72900717  1
  S  S122  1  0.11586906  0.50463770  0.35846573  1
  S  S123  1  0.33089802  0.44026022  0.62329813  1
  S  S124  1  0.32518332  0.41862386  0.31098232  1
  S  S125  1  0.88721274  0.83465745  0.63755747  1
  S  S126  1  0.71324479  0.64119080  0.11959425  1
  S  S127  1  0.77096718  0.93251840  0.56127720  1
  S  S128  1  0.42754102  0.50268630  0.52273283  1
  S  S129  1  0.03142919  0.52851898  0.10789143  1
  S  S130  1  0.50857069  0.59321049  0.31435598  1
  S  S131  1  0.41038292  0.50625891  0.24929223  1
  S  S132  1  0.07697991  0.06095329  0.22879817  1
  S  S133  1  0.92969765  0.64689909  0.16122129  1
  O  O134  1  0.87146059  0.17026832  0.63340376  1
  O  O135  1  0.89255900  0.35277218  0.18657006  1
  O  O136  1  0.89609130  0.51056332  0.80744016  1
  O  O137  1  0.22793516  0.31705586  0.11005192  1
  O  O138  1  0.86073058  0.18893736  0.81801477  1
  O  O139  1  0.41741100  0.71136051  0.51074730  1
  O  O140  1  0.33761517  0.82304434  0.11986537  1
  O  O141  1  0.51879062  0.37981603  0.32320293  1
  O  O142  1  0.97178208  0.59881769  0.36362960  1
  O  O143  1  0.49724851  0.04909601  0.25178230  1
  O  O144  1  0.03688695  0.32472384  0.28484049  1
  O  O145  1  0.05147875  0.77596744  0.50267902  1
  O  O146  1  0.23956189  0.23662899  0.90826589  1
  O  O147  1  0.98565045  0.75260251  0.48945276  1
  O  O148  1  0.76161962  0.56550200  0.67213555  1
  O  O149  1  0.36778313  0.90408948  0.72821635  1
  O  O150  1  0.53577468  0.45676006  0.63352971  1
  O  O151  1  0.32078006  0.35121601  0.83530250  1
  O  O152  1  0.59089294  0.63678922  0.04077514  1
  O  O153  1  0.51209306  0.20990795  0.01658783  1
  O  O154  1  0.17436643  0.04576495  0.64517279  1
  O  O155  1  0.93672999  0.75078560  0.38673535  1
  O  O156  1  0.11347352  0.58362727  0.34106635  1
  O  O157  1  0.25794163  0.78264469  0.87733935  1
  O  O158  1  0.55520081  0.71242838  0.81722220  1
  O  O159  1  0.09310277  0.65536347  0.24185229  1
  O  O160  1  0.63310146  0.43861173  0.90041806  1
  O  O161  1  0.72595568  0.54790069  0.34920957  1
  O  O162  1  0.77987555  0.75494522  0.88708642  1
  O  O163  1  0.16162871  0.81441422  0.08413996  1
  O  O164  1  0.00919705  0.49504248  0.60642906  1
  O  O165  1  0.00506158  0.49730628  0.66350177  1
  O  O166  1  0.69189520  0.10322747  0.54873379  1
  O  O167  1  0.71217922  0.01297978  0.22426931  1
  O  O168  1  0.74649141  0.32423320  0.32539970  1
  O  O169  1  0.65761289  0.71908519  0.84922341  1
  O  O170  1  0.36771580  0.17152760  0.09367477  1
  O  O171  1  0.97301055  0.14910808  0.24398964  1
  O  O172  1  0.63113863  0.90276475  0.89204656  1
  O  O173  1  0.57690388  0.98988060  0.50263709  1
  O  O174  1  0.72245212  0.08552937  0.19524299  1
  O  O175  1  0.64547230  0.15279471  0.02431597  1
  O  O176  1  0.95392858  0.97440581  0.94045858  1
  O  O177  1  0.01545662  0.55815986  0.37015870  1
  O  O178  1  0.96665482  0.53543583  0.42818415  1
  O  O179  1  0.29444889  0.53208827  0.85300946  1
  O  O180  1  0.31692201  0.31835608  0.85113667  1
  O  O181  1  0.93615477  0.13922853  0.55680126  1
  O  O182  1  0.09717649  0.04494606  0.57006117  1
  O  O183  1  0.14008402  0.52827580  0.99005385  1
  O  O184  1  0.74076862  0.81964267  0.87737307  1
  O  O185  1  0.35949115  0.59110776  0.70248408  1
  O  O186  1  0.81011339  0.05771116  0.80936116  1
  O  O187  1  0.51134240  0.58827574  0.91324055  1
  O  O188  1  0.64996393  0.90367170  0.79829518  1
  O  O189  1  0.89000534  0.54220249  0.79579267  1
  O  O190  1  0.09398194  0.20269719  0.37558295  1
  O  O191  1  0.46559802  0.50670236  0.03594227  1
  O  O192  1  0.59083326  0.74395900  0.28654125  1
  O  O193  1  0.82260056  0.32284245  0.03734819  1
  O  O194  1  0.52224326  0.64293304  0.12706051  1
  O  O195  1  0.62289048  0.86952644  0.21582103  1
  O  O196  1  0.53135463  0.48895340  0.05168172  1
  O  O197  1  0.72609133  0.33842218  0.63742990  1
  O  O198  1  0.32295647  0.27888585  0.51630035  1
  O  O199  1  0.43897142  0.80762413  0.27083225  1
  O  O200  1  0.96264841  0.81062938  0.02535074  1
  O  O201  1  0.40895294  0.47732011  0.69597421  1
  O  O202  1  0.25024290  0.39278962  0.15643704  1
  O  O203  1  0.66019738  0.56533797  0.71459592  1
  O  O204  1  0.73789692  0.59948877  0.95486528  1
  O  O205  1  0.41960006  0.63601024  0.61172075  1
  O  O206  1  0.75784611  0.65842081  0.35597268  1
  O  O207  1  0.04600264  0.92465616  0.11607264  1
  O  O208  1  0.70365786  0.61871325  0.85546058  1
  O  O209  1  0.49161588  0.37563761  0.09783416  1
  O  O210  1  0.43385165  0.22530286  0.17320187  1
  O  O211  1  0.63509365  0.42945391  0.61585010  1
  O  O212  1  0.62585992  0.12852364  0.37461261  1
  O  O213  1  0.65869363  0.30644459  0.85648984  1
