# generated using pymatgen
data_Li5.046Sn4.738S12
_symmetry_space_group_name_H-M   C2/m
_cell_length_a   19.21700000
_cell_length_b   3.69960000
_cell_length_c   6.52900000
_cell_angle_alpha   90.00000000
_cell_angle_beta   109.05600000
_cell_angle_gamma   90.00000000
_symmetry_Int_Tables_number   12
_chemical_formula_structural   Li5.046Sn4.738S12
_chemical_formula_sum   'Li5.046 Sn4.738 S12'
_cell_volume   438.74350984
_cell_formula_units_Z   1
loop_
 _symmetry_equiv_pos_site_id
 _symmetry_equiv_pos_as_xyz
  1  'x, y, z'
  2  '-x, -y, -z'
  3  '-x, y, -z'
  4  'x, -y, z'
  5  'x+1/2, y+1/2, z'
  6  '-x+1/2, -y+1/2, -z'
  7  '-x+1/2, y+1/2, -z'
  8  'x+1/2, -y+1/2, z'
loop_
 _atom_site_type_symbol
 _atom_site_label
 _atom_site_symmetry_multiplicity
 _atom_site_fract_x
 _atom_site_fract_y
 _atom_site_fract_z
 _atom_site_occupancy
  Li  Li0  4  0.16400000  0.50000000  0.49800000  0.58
  Li  Li1  2  0.00000000  0.00000000  0.50000000  0.3
  Li  Li2  4  0.03910000  0.50000000  0.34000000  0.216
  Sn  Sn3  2  0.00000000  0.50000000  0.00000000  0.625
  Li  Li4  2  0.00000000  0.50000000  0.00000000  0.375
  Sn  Sn5  4  0.16471000  0.00000000  0.99600000  0.872
  Li  Li6  4  0.16471000  0.00000000  0.99600000  0.128
  S  S7  4  0.08395000  0.00000000  0.23510000  1
  S  S8  4  0.08656000  0.50000000  0.75800000  1
  S  S9  4  0.24807000  0.50000000  0.23310000  1
