# generated using pymatgen
data_Li64.00008Si8P32
_symmetry_space_group_name_H-M   Pa-3
_cell_length_a   11.70737000
_cell_length_b   11.70737000
_cell_length_c   11.70737000
_cell_angle_alpha   90.00000000
_cell_angle_beta   90.00000000
_cell_angle_gamma   90.00000000
_symmetry_Int_Tables_number   205
_chemical_formula_structural   Li64.00008Si8P32
_chemical_formula_sum   'Li64.00008 Si8 P32'
_cell_volume   1604.64154482
_cell_formula_units_Z   1
loop_
 _symmetry_equiv_pos_site_id
 _symmetry_equiv_pos_as_xyz
  1  'x, y, z'
  2  '-x, -y, -z'
  3  '-x+1/2, -y, z+1/2'
  4  'x+1/2, y, -z+1/2'
  5  'x+1/2, -y+1/2, -z'
  6  '-x+1/2, y+1/2, z'
  7  '-x, y+1/2, -z+1/2'
  8  'x, -y+1/2, z+1/2'
  9  'z, x, y'
  10  '-z, -x, -y'
  11  'z+1/2, -x+1/2, -y'
  12  '-z+1/2, x+1/2, y'
  13  '-z, x+1/2, -y+1/2'
  14  'z, -x+1/2, y+1/2'
  15  '-z+1/2, -x, y+1/2'
  16  'z+1/2, x, -y+1/2'
  17  'y, z, x'
  18  '-y, -z, -x'
  19  '-y, z+1/2, -x+1/2'
  20  'y, -z+1/2, x+1/2'
  21  '-y+1/2, -z, x+1/2'
  22  'y+1/2, z, -x+1/2'
  23  'y+1/2, -z+1/2, -x'
  24  '-y+1/2, z+1/2, x'
loop_
 _atom_site_type_symbol
 _atom_site_label
 _atom_site_symmetry_multiplicity
 _atom_site_fract_x
 _atom_site_fract_y
 _atom_site_fract_z
 _atom_site_occupancy
  Li  Li0  24  0.01916775  0.71949607  0.75002044  0.16667
  Li  Li1  24  0.09660157  0.64389390  0.11748182  1.0
  Li  Li2  24  0.12505894  0.12787319  0.87069688  1.0
  Li  Li3  8  0.11374130  0.61374130  0.88625870  1.0
  Li  Li4  4  0.00000000  0.00000000  0.00000000  1.0
  Si  Si5  8  0.14022136  0.14022136  0.14022136  1.0
  P  P6  24  0.00560884  0.24850341  0.52072320  1.0
  P  P7  8  0.23613862  0.23613862  0.23613862  1.0
