# generated using pymatgen
data_Li16Sn2.044Ge1.956Se16
_symmetry_space_group_name_H-M   Pnma
_cell_length_a   14.88040000
_cell_length_b   8.20822000
_cell_length_c   6.54131000
_cell_angle_alpha   90.00000000
_cell_angle_beta   90.00000000
_cell_angle_gamma   90.00000000
_symmetry_Int_Tables_number   62
_chemical_formula_structural   Li16Sn2.044Ge1.956Se16
_chemical_formula_sum   'Li16 Sn2.044 Ge1.956 Se16'
_cell_volume   798.96604914
_cell_formula_units_Z   1
loop_
 _symmetry_equiv_pos_site_id
 _symmetry_equiv_pos_as_xyz
  1  'x, y, z'
  2  '-x, -y, -z'
  3  '-x+1/2, -y, z+1/2'
  4  'x+1/2, y, -z+1/2'
  5  'x+1/2, -y+1/2, -z+1/2'
  6  '-x+1/2, y+1/2, z+1/2'
  7  '-x, y+1/2, -z'
  8  'x, -y+1/2, z'
loop_
 _atom_site_type_symbol
 _atom_site_label
 _atom_site_symmetry_multiplicity
 _atom_site_fract_x
 _atom_site_fract_y
 _atom_site_fract_z
 _atom_site_occupancy
  Li  Li0  8  0.17228743  0.00223189  0.17800728  0.17
  Li  Li1  8  0.00575401  0.51442270  0.46841388  0.5
  Li  Li2  8  0.18145104  0.00103273  0.32130001  0.83
  Li  Li3  4  0.09580374  0.25000000  0.88537186  1.0
  Ge  Ge4  4  0.08004727  0.75000000  0.83680067  0.489
  Sn  Sn5  4  0.08004727  0.75000000  0.83680067  0.511
  Se  Se6  8  0.16516239  0.50056728  0.70492188  1.0
  Se  Se7  4  0.08086431  0.25000000  0.28013847  1.0
  Se  Se8  4  0.09675205  0.75000000  0.22319437  1.0
