# generated using pymatgen
data_Li0.56La2.48Mg2W2O12
_symmetry_space_group_name_H-M   P4/nmm
_cell_length_a   5.53300000
_cell_length_b   5.53300000
_cell_length_c   7.90300000
_cell_angle_alpha   90.00000000
_cell_angle_beta   90.00000000
_cell_angle_gamma   90.00000000
_symmetry_Int_Tables_number   129
_chemical_formula_structural   Li0.56La2.48Mg2W2O12
_chemical_formula_sum   'Li0.56 La2.48 Mg2 W2 O12'
_cell_volume   241.94314537
_cell_formula_units_Z   1
loop_
 _symmetry_equiv_pos_site_id
 _symmetry_equiv_pos_as_xyz
  1  'x, y, z'
  2  '-y+1/2, x+1/2, z'
  3  '-x, -y, z'
  4  'y+1/2, -x+1/2, z'
  5  'x+1/2, -y+1/2, -z'
  6  '-y, -x, -z'
  7  '-x+1/2, y+1/2, -z'
  8  'y, x, -z'
  9  '-x+1/2, -y+1/2, -z'
  10  'y, -x, -z'
  11  'x+1/2, y+1/2, -z'
  12  '-y, x, -z'
  13  '-x, y, z'
  14  'y+1/2, x+1/2, z'
  15  'x, -y, z'
  16  '-y+1/2, -x+1/2, z'
loop_
 _atom_site_type_symbol
 _atom_site_label
 _atom_site_symmetry_multiplicity
 _atom_site_fract_x
 _atom_site_fract_y
 _atom_site_fract_z
 _atom_site_occupancy
  La  La0  2  0.00000000  0.00000000  0.50000000  0.308
  Li  Li1  2  0.00000000  0.00000000  0.50000000  0.28
  La  La2  2  0.00000000  0.00000000  0.00000000  0.932
  Mg  Mg3  2  0.00000000  0.50000000  0.73509189  1.0
  W  W4  2  0.00000000  0.50000000  0.27392281  1.0
  O  O5  8  0.23092455  0.26907545  0.26094073  1.0
  O  O6  2  0.00000000  0.50000000  0.00354069  1.0
  O  O7  2  0.00000000  0.50000000  0.50545211  1.0
