# generated using pymatgen
data_Li19.944Sn1.31648Ge0.68352P4S24
_symmetry_space_group_name_H-M   P4_2/nmc
_cell_length_a   8.71820000
_cell_length_b   8.71820000
_cell_length_c   12.68760000
_cell_angle_alpha   90.00000000
_cell_angle_beta   90.00000000
_cell_angle_gamma   90.00000000
_symmetry_Int_Tables_number   137
_chemical_formula_structural   Li19.944Sn1.31648Ge0.68352P4S24
_chemical_formula_sum   'Li19.944 Sn1.31648 Ge0.68352 P4 S24'
_cell_volume   964.34655581
_cell_formula_units_Z   1
loop_
 _symmetry_equiv_pos_site_id
 _symmetry_equiv_pos_as_xyz
  1  'x, y, z'
  2  '-y+1/2, x+1/2, z+1/2'
  3  '-x, -y, z'
  4  'y+1/2, -x+1/2, z+1/2'
  5  'x+1/2, -y+1/2, -z+1/2'
  6  '-y, -x, -z'
  7  '-x+1/2, y+1/2, -z+1/2'
  8  'y, x, -z'
  9  '-x+1/2, -y+1/2, -z+1/2'
  10  'y, -x, -z'
  11  'x+1/2, y+1/2, -z+1/2'
  12  '-y, x, -z'
  13  '-x, y, z'
  14  'y+1/2, x+1/2, z+1/2'
  15  'x, -y, z'
  16  '-y+1/2, -x+1/2, z+1/2'
loop_
 _atom_site_type_symbol
 _atom_site_label
 _atom_site_symmetry_multiplicity
 _atom_site_fract_x
 _atom_site_fract_y
 _atom_site_fract_z
 _atom_site_occupancy
  Li  Li0  16  0.21845934  0.25852875  0.54537040  0.424
  Li  Li1  16  0.22050038  0.24433505  0.80907438  0.41
  Li  Li2  4  0.00000000  0.00000000  0.25162939  0.65
  Li  Li3  4  0.00000000  0.50000000  0.04849638  1.0
  Ge  Ge4  4  0.00000000  0.50000000  0.31720240  0.17088
  Sn  Sn5  4  0.00000000  0.50000000  0.31720240  0.32912
  P  P6  4  0.00000000  0.50000000  0.31720240  0.5
  P  P7  2  0.00000000  0.00000000  0.00000000  1.0
  S  S8  8  0.00000000  0.17832632  0.09759135  1.0
  S  S9  8  0.00000000  0.29785500  0.71005649  1.0
  S  S10  8  0.00000000  0.29812691  0.40785976  1.0
