# generated using pymatgen
data_Li5BiO5
_symmetry_space_group_name_H-M   Cm
_cell_length_a   9.96400000
_cell_length_b   4.14800000
_cell_length_c   5.94090000
_cell_angle_alpha   90.00000000
_cell_angle_beta   109.49000000
_cell_angle_gamma   90.00000000
_symmetry_Int_Tables_number   8
_chemical_formula_structural   Li5BiO5
_chemical_formula_sum   'Li10 Bi2 O10'
_cell_volume   231.47180311
_cell_formula_units_Z   2
loop_
 _symmetry_equiv_pos_site_id
 _symmetry_equiv_pos_as_xyz
  1  'x, y, z'
  2  'x, -y, z'
  3  'x+1/2, y+1/2, z'
  4  'x+1/2, -y+1/2, z'
loop_
 _atom_site_type_symbol
 _atom_site_label
 _atom_site_symmetry_multiplicity
 _atom_site_fract_x
 _atom_site_fract_y
 _atom_site_fract_z
 _atom_site_occupancy
  Li  Li0  2  0.15394317  0.50000000  0.84768337  1.0
  Li  Li1  2  0.21522330  0.50000000  0.34524285  1.0
  Li  Li2  2  0.30593571  0.00000000  0.66013930  1.0
  Li  Li3  2  0.32134156  0.00000000  0.13387769  1.0
  Li  Li4  2  0.47186270  0.50000000  0.54533058  1.0
  Bi  Bi5  2  0.49725760  0.50000000  0.00305537  1.0
  O  O6  2  0.01216150  0.50000000  0.07459641  1.0
  O  O7  2  0.13869185  0.00000000  0.83806450  1.0
  O  O8  2  0.16739505  0.00000000  0.32262799  1.0
  O  O9  2  0.34755613  0.50000000  0.68471732  1.0
  O  O10  2  0.34819346  0.50000000  0.18060801  1.0
