# generated using pymatgen
data_Li2ZrO3
_symmetry_space_group_name_H-M   C2/c
_cell_length_a   5.41630000
_cell_length_b   9.02620000
_cell_length_c   5.41560000
_cell_angle_alpha   90.00000000
_cell_angle_beta   112.61500000
_cell_angle_gamma   90.00000000
_symmetry_Int_Tables_number   15
_chemical_formula_structural   Li2ZrO3
_chemical_formula_sum   'Li8 Zr4 O12'
_cell_volume   244.40354437
_cell_formula_units_Z   4
loop_
 _symmetry_equiv_pos_site_id
 _symmetry_equiv_pos_as_xyz
  1  'x, y, z'
  2  '-x, -y, -z'
  3  '-x, y, -z+1/2'
  4  'x, -y, z+1/2'
  5  'x+1/2, y+1/2, z'
  6  '-x+1/2, -y+1/2, -z'
  7  '-x+1/2, y+1/2, -z+1/2'
  8  'x+1/2, -y+1/2, z+1/2'
loop_
 _atom_site_type_symbol
 _atom_site_label
 _atom_site_symmetry_multiplicity
 _atom_site_fract_x
 _atom_site_fract_y
 _atom_site_fract_z
 _atom_site_occupancy
  Li  Li0  4  0.00000000  0.25781515  0.75000000  1.0
  Li  Li1  4  0.00000000  0.41950077  0.25000000  1.0
  Zr  Zr2  4  0.00000000  0.08609809  0.25000000  1.0
  O  O3  8  0.24169901  0.08110401  0.99998050  1.0
  O  O4  4  0.25000000  0.25000000  0.50000000  1.0
