# generated using pymatgen
data_Li7ZnGa(PO4)4
_symmetry_space_group_name_H-M   Pnma
_cell_length_a   10.08925000
_cell_length_b   6.51080000
_cell_length_c   4.93587800
_cell_angle_alpha   90.00000000
_cell_angle_beta   90.00000000
_cell_angle_gamma   90.00000000
_symmetry_Int_Tables_number   62
_chemical_formula_structural   Li7ZnGa(PO4)4
_chemical_formula_sum   'Li7 Zn1 Ga1 P4 O16'
_cell_volume   324.23332874
_cell_formula_units_Z   1
loop_
 _symmetry_equiv_pos_site_id
 _symmetry_equiv_pos_as_xyz
  1  'x, y, z'
  2  '-x, -y, -z'
  3  '-x+1/2, -y, z+1/2'
  4  'x+1/2, y, -z+1/2'
  5  'x+1/2, -y+1/2, -z+1/2'
  6  '-x+1/2, y+1/2, z+1/2'
  7  '-x, y+1/2, -z'
  8  'x, -y+1/2, z'
loop_
 _atom_site_type_symbol
 _atom_site_label
 _atom_site_symmetry_multiplicity
 _atom_site_fract_x
 _atom_site_fract_y
 _atom_site_fract_z
 _atom_site_occupancy
  Li  Li0  4  0.06000000  0.75000000  0.10000000  0.25
  Li  Li1  8  0.15890000  0.50130000  0.81230000  0.75
  Zn  Zn2  8  0.15890000  0.50130000  0.81230000  0.125
  Ga  Ga3  8  0.15890000  0.50130000  0.81230000  0.125
  P  P4  4  0.09274000  0.25000000  0.31060000  1.0
  O  O5  8  0.16160000  0.05110000  0.19660000  1.0
  O  O6  4  0.05310000  0.75000000  0.76810000  1.0
  O  O7  4  0.10720000  0.25000000  0.62340000  1.0
