# generated using pymatgen
data_LiSi2N3
_symmetry_space_group_name_H-M   Cmc2_1
_cell_length_a   9.18600000
_cell_length_b   5.30200000
_cell_length_c   4.77600000
_cell_angle_alpha   90.00000000
_cell_angle_beta   90.00000000
_cell_angle_gamma   90.00000000
_symmetry_Int_Tables_number   36
_chemical_formula_structural   LiSi2N3
_chemical_formula_sum   'Li4 Si8 N12'
_cell_volume   232.61112547
_cell_formula_units_Z   4
loop_
 _symmetry_equiv_pos_site_id
 _symmetry_equiv_pos_as_xyz
  1  'x, y, z'
  2  '-x, -y, z+1/2'
  3  '-x, y, z'
  4  'x, -y, z+1/2'
  5  'x+1/2, y+1/2, z'
  6  '-x+1/2, -y+1/2, z+1/2'
  7  '-x+1/2, y+1/2, z'
  8  'x+1/2, -y+1/2, z+1/2'
loop_
 _atom_site_type_symbol
 _atom_site_label
 _atom_site_symmetry_multiplicity
 _atom_site_fract_x
 _atom_site_fract_y
 _atom_site_fract_z
 _atom_site_occupancy
  Li  Li0  4  0.00000000  0.32511185  0.00191166  1.0
  Si  Si1  8  0.15046939  0.17490309  0.47359448  1.0
  N  N2  8  0.20176859  0.14383419  0.84842458  1.0
  N  N3  4  0.00000000  0.28639359  0.42368621  1.0
