# generated using pymatgen
data_Li12H16.002I4N8
_symmetry_space_group_name_H-M   P6_3mc
_cell_length_a   7.09109000
_cell_length_b   7.09109000
_cell_length_c   11.50958000
_cell_angle_alpha   90.00000000
_cell_angle_beta   90.00000000
_cell_angle_gamma   120.00000000
_symmetry_Int_Tables_number   186
_chemical_formula_structural   Li12H16.002I4N8
_chemical_formula_sum   'Li12 H16.002 I4 N8'
_cell_volume   501.20581675
_cell_formula_units_Z   1
loop_
 _symmetry_equiv_pos_site_id
 _symmetry_equiv_pos_as_xyz
  1  'x, y, z'
  2  'x-y, x, z+1/2'
  3  '-y, x-y, z'
  4  '-x, -y, z+1/2'
  5  '-x+y, -x, z'
  6  'y, -x+y, z+1/2'
  7  'y, x, z+1/2'
  8  'x, x-y, z'
  9  'x-y, -y, z+1/2'
  10  '-y, -x, z'
  11  '-x, -x+y, z+1/2'
  12  '-x+y, y, z'
loop_
 _atom_site_type_symbol
 _atom_site_label
 _atom_site_symmetry_multiplicity
 _atom_site_fract_x
 _atom_site_fract_y
 _atom_site_fract_z
 _atom_site_occupancy
  Li  Li0  6  0.10710000  0.21420000  0.87920000  1.0
  Li  Li1  6  0.13380000  0.26760000  0.67330000  1.0
  H  H2  6  0.07365000  0.14730000  0.47890000  0.667
  H  H3  6  0.10555000  0.21110000  0.25260000  1.0
  H  H4  6  0.17045000  0.34090000  0.17730000  1.0
  I  I5  2  0.33333333  0.66666667  0.55050000  1.0
  I  I6  2  0.33333333  0.66666667  0.92640000  1.0
  N  N7  6  0.17750000  0.35500000  0.25710000  1.0
  N  N8  2  0.00000000  0.00000000  0.01400000  1.0
