# generated using pymatgen
data_Li6Zr2O7
_symmetry_space_group_name_H-M   C2/c
_cell_length_a   10.44000000
_cell_length_b   5.99100000
_cell_length_c   10.20400000
_cell_angle_alpha   90.00000000
_cell_angle_beta   100.25000000
_cell_angle_gamma   90.00000000
_symmetry_Int_Tables_number   15
_chemical_formula_structural   Li6Zr2O7
_chemical_formula_sum   'Li24 Zr8 O28'
_cell_volume   628.03424953
_cell_formula_units_Z   4
loop_
 _symmetry_equiv_pos_site_id
 _symmetry_equiv_pos_as_xyz
  1  'x, y, z'
  2  '-x, -y, -z'
  3  '-x, y, -z+1/2'
  4  'x, -y, z+1/2'
  5  'x+1/2, y+1/2, z'
  6  '-x+1/2, -y+1/2, -z'
  7  '-x+1/2, y+1/2, -z+1/2'
  8  'x+1/2, -y+1/2, z+1/2'
loop_
 _atom_site_type_symbol
 _atom_site_label
 _atom_site_symmetry_multiplicity
 _atom_site_fract_x
 _atom_site_fract_y
 _atom_site_fract_z
 _atom_site_occupancy
  Li  Li0  8  0.07947205  0.11838417  0.10244452  1.0
  Li  Li1  8  0.08915585  0.35052671  0.57678746  1.0
  Li  Li2  8  0.18109303  0.36752455  0.40015230  1.0
  Zr  Zr3  8  0.15506183  0.11017156  0.86716040  1.0
  O  O4  8  0.11891848  0.13352733  0.49110996  1.0
  O  O5  8  0.14115398  0.36220109  0.00385222  1.0
  O  O6  8  0.24103235  0.39704960  0.75878048  1.0
  O  O7  4  0.00000000  0.15961731  0.75000000  1.0
