# generated using pymatgen
data_Ba3Zr1.0002Ta4.9998Si4O26
_symmetry_space_group_name_H-M   P-62m
_cell_length_a   9.04950000
_cell_length_b   9.04950000
_cell_length_c   7.81980000
_cell_angle_alpha   90.00000000
_cell_angle_beta   90.00000000
_cell_angle_gamma   120.00000000
_symmetry_Int_Tables_number   189
_chemical_formula_structural   Ba3Zr1.0002Ta4.9998Si4O26
_chemical_formula_sum   'Ba3 Zr1.0002 Ta4.9998 Si4 O26'
_cell_volume   554.59435670
_cell_formula_units_Z   1
loop_
 _symmetry_equiv_pos_site_id
 _symmetry_equiv_pos_as_xyz
  1  'x, y, z'
  2  '-x+y, -x, -z'
  3  '-y, x-y, z'
  4  'x, y, -z'
  5  '-x+y, -x, z'
  6  '-y, x-y, -z'
  7  'y, x, z'
  8  '-x, -x+y, -z'
  9  'x-y, -y, z'
  10  'y, x, -z'
  11  '-x, -x+y, z'
  12  'x-y, -y, -z'
loop_
 _atom_site_type_symbol
 _atom_site_label
 _atom_site_symmetry_multiplicity
 _atom_site_fract_x
 _atom_site_fract_y
 _atom_site_fract_z
 _atom_site_occupancy
  Ba  Ba0  3  0.00000000  0.58525151  0.00000000  1.0
  Ta  Ta1  6  0.00000000  0.23653271  0.24662278  0.8333
  Zr  Zr2  6  0.00000000  0.23653271  0.24662278  0.1667
  Si  Si3  4  0.33333333  0.66666667  0.70733459  1.0
  O  O4  12  0.18266468  0.49739629  0.23712214  1.0
  O  O5  6  0.00000000  0.81747840  0.25865953  1.0
  O  O6  3  0.00000000  0.22309946  0.00000000  1.0
  O  O7  3  0.00000000  0.28672008  0.50000000  1.0
  O  O8  2  0.33333333  0.66666667  0.50000000  1.0
