# generated using pymatgen
data_KNa2Li3Fe2(Si2O5)6
_symmetry_space_group_name_H-M   P6/mcc
_cell_length_a   10.06170000
_cell_length_b   10.06170000
_cell_length_c   14.08320000
_cell_angle_alpha   90.00000000
_cell_angle_beta   90.00000000
_cell_angle_gamma   120.00000000
_symmetry_Int_Tables_number   192
_chemical_formula_structural   KNa2Li3Fe2(Si2O5)6
_chemical_formula_sum   'K2 Na4 Li6 Fe4 Si24 O60'
_cell_volume   1234.73769571
_cell_formula_units_Z   2
loop_
 _symmetry_equiv_pos_site_id
 _symmetry_equiv_pos_as_xyz
  1  'x, y, z'
  2  '-x, -y, -z'
  3  'x-y, x, z'
  4  '-x+y, -x, -z'
  5  '-y, x-y, z'
  6  'y, -x+y, -z'
  7  '-x, -y, z'
  8  'x, y, -z'
  9  '-x+y, -x, z'
  10  'x-y, x, -z'
  11  'y, -x+y, z'
  12  '-y, x-y, -z'
  13  '-y, -x, -z+1/2'
  14  'y, x, z+1/2'
  15  '-x, -x+y, -z+1/2'
  16  'x, x-y, z+1/2'
  17  '-x+y, y, -z+1/2'
  18  'x-y, -y, z+1/2'
  19  'y, x, -z+1/2'
  20  '-y, -x, z+1/2'
  21  'x, x-y, -z+1/2'
  22  '-x, -x+y, z+1/2'
  23  'x-y, -y, -z+1/2'
  24  '-x+y, y, z+1/2'
loop_
 _atom_site_type_symbol
 _atom_site_label
 _atom_site_symmetry_multiplicity
 _atom_site_fract_x
 _atom_site_fract_y
 _atom_site_fract_z
 _atom_site_occupancy
  K  K0  2  0.00000000  0.00000000  0.25000000  1.0
  Na  Na1  8  0.33333333  0.66666667  0.48691892  0.5
  Li  Li2  6  0.00000000  0.50000000  0.25000000  1.0
  Fe  Fe3  4  0.33333333  0.66666667  0.25000000  1.0
  Si  Si4  24  0.11541483  0.35587409  0.10495983  1.0
  O  O5  24  0.05781978  0.27020416  0.36756065  1.0
  O  O6  24  0.15447290  0.50961146  0.19341876  1.0
  O  O7  12  0.13196969  0.38072844  0.00000000  1.0
