# generated using pymatgen
data_Li8.8266Al0.8Sn1.2S8
_symmetry_space_group_name_H-M   P-3m1
_cell_length_a   8.01709000
_cell_length_b   8.01709000
_cell_length_c   6.28461000
_cell_angle_alpha   90.00000000
_cell_angle_beta   90.00000000
_cell_angle_gamma   120.00000000
_symmetry_Int_Tables_number   164
_chemical_formula_structural   Li8.8266Al0.8Sn1.2S8
_chemical_formula_sum   'Li8.8266 Al0.8 Sn1.2 S8'
_cell_volume   349.81826531
_cell_formula_units_Z   1
loop_
 _symmetry_equiv_pos_site_id
 _symmetry_equiv_pos_as_xyz
  1  'x, y, z'
  2  '-x, -y, -z'
  3  '-y, x-y, z'
  4  'y, -x+y, -z'
  5  '-x+y, -x, z'
  6  'x-y, x, -z'
  7  'y, x, -z'
  8  '-y, -x, z'
  9  'x-y, -y, -z'
  10  '-x+y, y, z'
  11  '-x, -x+y, -z'
  12  'x, x-y, z'
loop_
 _atom_site_type_symbol
 _atom_site_label
 _atom_site_symmetry_multiplicity
 _atom_site_fract_x
 _atom_site_fract_y
 _atom_site_fract_z
 _atom_site_occupancy
  Li  Li0  6  0.03609933  0.51804967  0.52490000  0.46
  Li  Li1  6  0.15650017  0.31300033  0.85720000  0.584
  Li  Li2  6  0.16440017  0.32880033  0.69080000  0.4271
  Sn  Sn3  2  0.33333333  0.66666667  0.13620000  0.6
  Al  Al4  2  0.33333333  0.66666667  0.13620000  0.4
  S  S5  6  0.17657483  0.35314967  0.26300000  1.0
  S  S6  2  0.33333333  0.66666667  0.76460000  1.0
