# generated using pymatgen
data_LiVO3
_symmetry_space_group_name_H-M   C2/c
_cell_length_a   10.15970000
_cell_length_b   8.41550000
_cell_length_c   5.88430000
_cell_angle_alpha   90.00000000
_cell_angle_beta   110.50500000
_cell_angle_gamma   90.00000000
_symmetry_Int_Tables_number   15
_chemical_formula_structural   LiVO3
_chemical_formula_sum   'Li8 V8 O24'
_cell_volume   471.22580894
_cell_formula_units_Z   8
loop_
 _symmetry_equiv_pos_site_id
 _symmetry_equiv_pos_as_xyz
  1  'x, y, z'
  2  '-x, -y, -z'
  3  '-x, y, -z+1/2'
  4  'x, -y, z+1/2'
  5  'x+1/2, y+1/2, z'
  6  '-x+1/2, -y+1/2, -z'
  7  '-x+1/2, y+1/2, -z+1/2'
  8  'x+1/2, -y+1/2, z+1/2'
loop_
 _atom_site_type_symbol
 _atom_site_label
 _atom_site_symmetry_multiplicity
 _atom_site_fract_x
 _atom_site_fract_y
 _atom_site_fract_z
 _atom_site_occupancy
  Li  Li0  4  0.00000000  0.09287323  0.75000000  1.0
  Li  Li1  4  0.00000000  0.29032471  0.25000000  1.0
  V  V2  8  0.21347504  0.40473172  0.72761709  1.0
  O  O3  8  0.11751848  0.12142697  0.15255676  1.0
  O  O4  8  0.15135985  0.47721392  0.44533634  1.0
  O  O5  8  0.16195112  0.23705337  0.71740914  1.0
