# generated using pymatgen
data_K1.2Li10.8Sb12O36
_symmetry_space_group_name_H-M   Pn-3
_cell_length_a   9.68100000
_cell_length_b   9.68100000
_cell_length_c   9.68100000
_cell_angle_alpha   90.00000000
_cell_angle_beta   90.00000000
_cell_angle_gamma   90.00000000
_symmetry_Int_Tables_number   201
_chemical_formula_structural   K1.2Li10.8Sb12O36
_chemical_formula_sum   'K1.2 Li10.8 Sb12 O36'
_cell_volume   907.32036824
_cell_formula_units_Z   1
loop_
 _symmetry_equiv_pos_site_id
 _symmetry_equiv_pos_as_xyz
  1  'x, y, z'
  2  '-x, -y, z'
  3  'x, -y, -z'
  4  '-x, y, -z'
  5  'z, x, y'
  6  'z, -x, -y'
  7  '-z, x, -y'
  8  '-z, -x, y'
  9  'y, z, x'
  10  '-y, z, -x'
  11  '-y, -z, x'
  12  'y, -z, -x'
  13  '-x+1/2, -y+1/2, -z+1/2'
  14  'x+1/2, y+1/2, -z+1/2'
  15  '-x+1/2, y+1/2, z+1/2'
  16  'x+1/2, -y+1/2, z+1/2'
  17  '-z+1/2, -x+1/2, -y+1/2'
  18  '-z+1/2, x+1/2, y+1/2'
  19  'z+1/2, -x+1/2, y+1/2'
  20  'z+1/2, x+1/2, -y+1/2'
  21  '-y+1/2, -z+1/2, -x+1/2'
  22  'y+1/2, -z+1/2, x+1/2'
  23  'y+1/2, z+1/2, -x+1/2'
  24  '-y+1/2, z+1/2, x+1/2'
loop_
 _atom_site_type_symbol
 _atom_site_label
 _atom_site_symmetry_multiplicity
 _atom_site_fract_x
 _atom_site_fract_y
 _atom_site_fract_z
 _atom_site_occupancy
  Li  Li0  8  0.15359453  0.15359453  0.15359453  0.85
  K  K1  8  0.15359453  0.15359453  0.15359453  0.15
  Li  Li2  4  0.25000000  0.25000000  0.75000000  1.0
  Sb  Sb3  12  0.00000000  0.35269885  0.50000000  1.0
  O  O4  24  0.00039595  0.34518373  0.69071586  1.0
  O  O5  12  0.00000000  0.00000000  0.37120210  1.0
