# generated using pymatgen
data_LiBiO2
_symmetry_space_group_name_H-M   Ibam
_cell_length_a   5.20800000
_cell_length_b   18.04100000
_cell_length_c   4.99900000
_cell_angle_alpha   90.00000000
_cell_angle_beta   90.00000000
_cell_angle_gamma   90.00000000
_symmetry_Int_Tables_number   72
_chemical_formula_structural   LiBiO2
_chemical_formula_sum   'Li8 Bi8 O16'
_cell_volume   469.69368247
_cell_formula_units_Z   8
loop_
 _symmetry_equiv_pos_site_id
 _symmetry_equiv_pos_as_xyz
  1  'x, y, z'
  2  '-x, -y, -z'
  3  '-x, -y, z'
  4  'x, y, -z'
  5  'x, -y, -z+1/2'
  6  '-x, y, z+1/2'
  7  '-x, y, -z+1/2'
  8  'x, -y, z+1/2'
  9  'x+1/2, y+1/2, z+1/2'
  10  '-x+1/2, -y+1/2, -z+1/2'
  11  '-x+1/2, -y+1/2, z+1/2'
  12  'x+1/2, y+1/2, -z+1/2'
  13  'x+1/2, -y+1/2, -z'
  14  '-x+1/2, y+1/2, z'
  15  '-x+1/2, y+1/2, -z'
  16  'x+1/2, -y+1/2, z'
loop_
 _atom_site_type_symbol
 _atom_site_label
 _atom_site_symmetry_multiplicity
 _atom_site_fract_x
 _atom_site_fract_y
 _atom_site_fract_z
 _atom_site_occupancy
  Li  Li0  8  0.00000000  0.20377065  0.25000000  1.0
  Bi  Bi1  8  0.24024165  0.09544605  0.00000000  1.0
  O  O2  8  0.21141722  0.21308259  0.00000000  1.0
  O  O3  8  0.23188652  0.93805625  0.00000000  1.0
