# generated using pymatgen
data_Li9.0006Ti9Al3P18O72
_symmetry_space_group_name_H-M   P3c1
_cell_length_a   8.49409000
_cell_length_b   8.49409000
_cell_length_c   20.79210000
_cell_angle_alpha   90.00000000
_cell_angle_beta   90.00000000
_cell_angle_gamma   120.00000000
_symmetry_Int_Tables_number   158
_chemical_formula_structural   Li9.0006Ti9Al3P18O72
_chemical_formula_sum   'Li9.0006 Ti9 Al3 P18 O72'
_cell_volume   1299.16018836
_cell_formula_units_Z   1
loop_
 _symmetry_equiv_pos_site_id
 _symmetry_equiv_pos_as_xyz
  1  'x, y, z'
  2  '-y, x-y, z'
  3  '-x+y, -x, z'
  4  '-y, -x, z+1/2'
  5  '-x+y, y, z+1/2'
  6  'x, x-y, z+1/2'
loop_
 _atom_site_type_symbol
 _atom_site_label
 _atom_site_symmetry_multiplicity
 _atom_site_fract_x
 _atom_site_fract_y
 _atom_site_fract_z
 _atom_site_occupancy
  Li  Li0  6  0.08535228  0.32492089  0.08034279  0.1667
  Li  Li1  6  0.34984227  0.07078547  0.42806915  0.1667
  Li  Li2  6  0.38633584  0.00902389  0.75612164  0.1667
  Li  Li3  2  0.00000000  0.00000000  0.49507304  1.0
  Li  Li4  2  0.33333333  0.66666667  0.17474818  1.0
  Li  Li5  2  0.66666667  0.33333333  0.84021168  1.0
  Ti  Ti6  2  0.00000000  0.00000000  0.12931486  0.75
  Al  Al7  2  0.00000000  0.00000000  0.12931486  0.25
  Ti  Ti8  2  0.00000000  0.00000000  0.35180903  0.75
  Al  Al9  2  0.00000000  0.00000000  0.35180903  0.25
  Ti  Ti10  2  0.33333333  0.66666667  0.02805753  0.75
  Al  Al11  2  0.33333333  0.66666667  0.02805753  0.25
  Ti  Ti12  2  0.33333333  0.66666667  0.32949126  0.75
  Al  Al13  2  0.33333333  0.66666667  0.32949126  0.25
  Ti  Ti14  2  0.66666667  0.33333333  0.69194338  0.75
  Al  Al15  2  0.66666667  0.33333333  0.69194338  0.25
  Ti  Ti16  2  0.66666667  0.33333333  0.98137218  0.75
  Al  Al17  2  0.66666667  0.33333333  0.98137218  0.25
  P  P18  6  0.05512210  0.38050475  0.92323479  1.0
  P  P19  6  0.28899025  0.00285717  0.25582000  1.0
  P  P20  6  0.38193055  0.04816434  0.58407450  1.0
  O  O21  6  0.00566268  0.20142810  0.18721426  1.0
  O  O22  6  0.15348491  0.47868870  0.86279089  1.0
  O  O23  6  0.16009477  0.46775934  0.98652402  1.0
  O  O24  6  0.16380492  0.49201320  0.58298886  1.0
  O  O25  6  0.16989699  0.47833667  0.25194351  1.0
  O  O26  6  0.19426689  0.01363434  0.30879735  1.0
  O  O27  6  0.19495753  0.00108139  0.92197491  1.0
  O  O28  6  0.19848442  0.02840695  0.58743119  1.0
  O  O29  6  0.47255169  0.15394939  0.50804943  1.0
  O  O30  6  0.47875750  0.16807340  0.25397151  1.0
  O  O31  6  0.48004830  0.14289977  0.65023545  1.0
  O  O32  6  0.50149137  0.14577877  0.90075590  1.0
