# generated using pymatgen
data_Li2SnS3
_symmetry_space_group_name_H-M   C2/c
_cell_length_a   6.39640000
_cell_length_b   11.08640000
_cell_length_c   12.40480000
_cell_angle_alpha   90.00000000
_cell_angle_beta   99.86700000
_cell_angle_gamma   90.00000000
_symmetry_Int_Tables_number   15
_chemical_formula_structural   Li2SnS3
_chemical_formula_sum   'Li16 Sn8 S24'
_cell_volume   866.65039096
_cell_formula_units_Z   8
loop_
 _symmetry_equiv_pos_site_id
 _symmetry_equiv_pos_as_xyz
  1  'x, y, z'
  2  '-x, -y, -z'
  3  '-x, y, -z+1/2'
  4  'x, -y, z+1/2'
  5  'x+1/2, y+1/2, z'
  6  '-x+1/2, -y+1/2, -z'
  7  '-x+1/2, y+1/2, -z+1/2'
  8  'x+1/2, -y+1/2, z+1/2'
loop_
 _atom_site_type_symbol
 _atom_site_label
 _atom_site_symmetry_multiplicity
 _atom_site_fract_x
 _atom_site_fract_y
 _atom_site_fract_z
 _atom_site_occupancy
  Li  Li0  8  0.24485795  0.91607916  0.51629423  1.0
  Li  Li1  4  0.00000000  0.41606009  0.25000000  1.0
  Li  Li2  4  0.25000000  0.25000000  0.50000000  1.0
  Sn  Sn3  4  0.00000000  0.06750162  0.25000000  1.0
  Sn  Sn4  4  0.00000000  0.25686037  0.75000000  1.0
  S  S5  8  0.10341114  0.91832792  0.13330381  1.0
  S  S6  8  0.12632467  0.23637865  0.11808390  1.0
  S  S7  8  0.13131462  0.40950534  0.62022089  1.0
