# generated using pymatgen
data_Li3.048La4Mg0.312O8
_symmetry_space_group_name_H-M   P2_1/c
_cell_length_a   5.87500000
_cell_length_b   6.21200000
_cell_length_c   5.84900000
_cell_angle_alpha   90.00000000
_cell_angle_beta   102.45100000
_cell_angle_gamma   90.00000000
_symmetry_Int_Tables_number   14
_chemical_formula_structural   Li3.048La4Mg0.312O8
_chemical_formula_sum   'Li3.048 La4 Mg0.312 O8'
_cell_volume   208.44170949
_cell_formula_units_Z   1
loop_
 _symmetry_equiv_pos_site_id
 _symmetry_equiv_pos_as_xyz
  1  'x, y, z'
  2  '-x, -y, -z'
  3  '-x, y+1/2, -z+1/2'
  4  'x, -y+1/2, z+1/2'
loop_
 _atom_site_type_symbol
 _atom_site_label
 _atom_site_symmetry_multiplicity
 _atom_site_fract_x
 _atom_site_fract_y
 _atom_site_fract_z
 _atom_site_occupancy
  Li  Li0  4  0.34484375  0.63984966  0.33143465  0.762
  Mg  Mg1  4  0.34484375  0.63984966  0.33143465  0.078
  La  La2  4  0.19436142  0.06895461  0.30644725  1.0
  O  O3  4  0.08023725  0.73083611  0.52461126  1.0
  O  O4  4  0.41976798  0.12729160  0.72058417  1.0
