# generated using pymatgen
data_Li16Ge4Se8.396S7.604
_symmetry_space_group_name_H-M   Pnma
_cell_length_a   14.40259000
_cell_length_b   7.97440000
_cell_length_c   6.30594000
_cell_angle_alpha   90.00000000
_cell_angle_beta   90.00000000
_cell_angle_gamma   90.00000000
_symmetry_Int_Tables_number   62
_chemical_formula_structural   Li16Ge4Se8.396S7.604
_chemical_formula_sum   'Li16 Ge4 Se8.396 S7.604'
_cell_volume   724.24990725
_cell_formula_units_Z   1
loop_
 _symmetry_equiv_pos_site_id
 _symmetry_equiv_pos_as_xyz
  1  'x, y, z'
  2  '-x, -y, -z'
  3  '-x+1/2, -y, z+1/2'
  4  'x+1/2, y, -z+1/2'
  5  'x+1/2, -y+1/2, -z+1/2'
  6  '-x+1/2, y+1/2, z+1/2'
  7  '-x, y+1/2, -z'
  8  'x, -y+1/2, z'
loop_
 _atom_site_type_symbol
 _atom_site_label
 _atom_site_symmetry_multiplicity
 _atom_site_fract_x
 _atom_site_fract_y
 _atom_site_fract_z
 _atom_site_occupancy
  Li  Li0  8  0.17559026  0.51351553  0.30866480  0.68
  Li  Li1  8  0.02714893  0.01017545  0.46659620  0.5
  Li  Li2  8  0.17897913  0.00084840  0.19321390  0.32
  Li  Li3  4  0.08953808  0.25000000  0.87058694  1.0
  Ge  Ge4  4  0.06507057  0.75000000  0.85382423  1.0
  S  S5  8  0.17387785  0.51140647  0.71457567  0.403
  Se  Se6  8  0.17387785  0.51140647  0.71457567  0.597
  S  S7  4  0.06318628  0.25000000  0.26897791  0.494
  Se  Se8  4  0.06318628  0.25000000  0.26897791  0.506
  S  S9  4  0.09328405  0.75000000  0.19991686  0.601
  Se  Se10  4  0.09328405  0.75000000  0.19991686  0.399
